WIDTH=28;
DEPTH=148;
ADDRESS_RADIX=HEX;
DATA_RADIX=BIN;

CONTENT
BEGIN
 00 : 0000111110100000000000000000;
 01 : 1111001110111111110110010100;
 02 : 0000001110011100001111001100;
 03 : 0000011010010111110001110101;
 04 : 0000111110100000000000000000;
 05 : 1111001110011011110110011111;
 06 : 0000010000001100001111000101;
 07 : 0000010111110111110001100011;
 08 : 0000111110100000000000000000;
 09 : 1111001100110011110111000010;
 0A : 0000010101011000001110101011;
 0B : 0000010000001011110000111001;
 0C : 0000111110100000000000000000;
 0D : 1111001010010111110111111110;
 0E : 0000011101100100001101110000;
 0F : 0000000010110111110000011001;
 10 : 0000111110100000000000000000;
 11 : 1111000111011011111001010111;
 12 : 0000100111111000001100000001;
 13 : 1111110000010011110000111000;
 14 : 0000111110100000000000000000;
 15 : 1111000100100011111011001101;
 16 : 0000110010101100001001000111;
 17 : 1111011010111011110011011011;
 18 : 0000111110100000000000000000;
 19 : 1111000010010011111101100010;
 1A : 0000111011011000000100110111;
 1B : 1111001000011011111000110111;
 1C : 0000111110100000000000000000;
 1D : 1111000001100000000000010100;
 1E : 0000111110011111111111010111;
 1F : 1111000001100100000000111101;
 20 : 0000111110100000000000000000;
 21 : 1111000011000000000011011100;
 22 : 0000111000011011111001010000;
 23 : 1111001110111100001001101011;
 24 : 0000111110100000000000000000;
 25 : 1111000111101000000110110000;
 26 : 0000100111000111110011110011;
 27 : 1111110001110100001111001101;
 28 : 0000111110100000000000000000;
 29 : 1111001111111000001001111110;
 2A : 0000001011100011110000101001;
 2B : 0000011110010100001101101010;
 2C : 0000111110100000000000000000;
 2D : 1111011011111100001100110000;
 2E : 1111101011000111110001010001;
 2F : 0000111100001000000100001101;
 30 : 0000111110100000000000000000;
 31 : 1111101011011100001110110000;
 32 : 1111001110111111110110010100;
 33 : 0000110100101111110111100110;
 34 : 0000111110100000000000000000;
 35 : 1111111101100000001111100111;
 36 : 1111000001101111111110110001;
 37 : 0000000111011011110000011111;
 38 : 0000111110100000000000000000;
 39 : 0000010000100000001111000100;
 3A : 1111001010001100000111111110;
 3B : 1111010011000011110101001001;
 3C : 0000111110100000000000000000;
 3D : 0000100010011100001101000001;
 3E : 1111100111100100001110011000;
 3F : 1111000010100000000010110110;
 40 : 0000111110100000000000000000;
 41 : 0000110001010000001001100110;
 42 : 0000001111010100001111001001;
 43 : 1111100110110100001110010011;
 44 : 0000111110100000000000000000;
 45 : 0000111011000100000101000110;
 46 : 0000110001001100001001101000;
 47 : 0000100001111100001101000111;
 48 : 0000111110100000000000000000;
 49 : 0000111110100000000000000000;
 4A : 0000111110100000000000000000;
 4B : 0000111110100000000000000000;
 4C : 0000111110100000000000000000;
 4D : 0000111011000111111010111001;
 4E : 0000110001001111110110010111;
 4F : 0000100001111111110010111000;
 50 : 0000111110100000000000000000;
 51 : 0000110001010011110110011001;
 52 : 0000001111010111110000110110;
 53 : 1111100110110111110001101100;
 54 : 0000111110100000000000000000;
 55 : 0000100010011111110010111110;
 56 : 1111100111100111110001100111;
 57 : 1111000010100011111101001001;
 58 : 0000111110100000000000000000;
 59 : 0000010000100011110000111011;
 5A : 1111001010001111111000000001;
 5B : 1111010011000000001010110110;
 5C : 0000111110100000000000000000;
 5D : 1111111101100011110000011000;
 5E : 1111000001101100000001001110;
 5F : 0000000111011000001111100000;
 60 : 0000111110100000000000000000;
 61 : 1111101011011111110001001111;
 62 : 1111001110111100001001101011;
 63 : 0000110100101100001000011001;
 64 : 0000111110100000000000000000;
 65 : 1111011011111111110011001111;
 66 : 1111101011000100001110101110;
 67 : 0000111100001011111011110010;
 68 : 0000111110100000000000000000;
 69 : 1111001111111011110110000001;
 6A : 0000001011100000001111010110;
 6B : 0000011110010111110010010101;
 6C : 0000111110100000000000000000;
 6D : 1111000111101011111001001111;
 6E : 0000100111000100001100001100;
 6F : 1111110001110111110000110010;
 70 : 0000111110100000000000000000;
 71 : 1111000011000011111100100011;
 72 : 0000111000011000000110101111;
 73 : 1111001110111111110110010100;
 74 : 0000111110100000000000000000;
 75 : 1111000001100011111111101011;
 76 : 0000111110011100000000101000;
 77 : 1111000001100111111111000010;
 78 : 0000111110100000000000000000;
 79 : 1111000010010000000010011101;
 7A : 0000111011011011111011001000;
 7B : 1111001000011000000111001000;
 7C : 0000111110100000000000000000;
 7D : 1111000100100000000100110010;
 7E : 0000110010101111110110111000;
 7F : 1111011010111000001100100100;
 80 : 0000111110100000000000000000;
 81 : 1111000111011000000110101000;
 82 : 0000100111111011110011111110;
 83 : 1111110000010000001111000111;
 84 : 0000111110100000000000000000;
 85 : 1111001010010100001000000001;
 86 : 0000011101100111110010001111;
 87 : 0000000010110100001111100110;
 88 : 0000111110100000000000000000;
 89 : 1111001100110000001000111101;
 8A : 0000010101011011110001010100;
 8B : 0000010000001000001111000110;
 8C : 0000111110100000000000000000;
 8D : 1111001110011000001001100000;
 8E : 0000010000001111110000111010;
 8F : 0000010111110100001110011100;
 90 : 0000111110100000000000000000;
 91 : 1111001110111100001001101011;
 92 : 0000001110011111110000110011;
 93 : 0000011010010100001110001010;
END;
