WIDTH=28;
DEPTH=52;
ADDRESS_RADIX=HEX;
DATA_RADIX=BIN;

CONTENT
BEGIN
 00 : 0000111110100000000000000000;
 01 : 1111001110111111110110010100;
 02 : 0000001110011100001111001100;
 03 : 0000011010010111110001110101;
 04 : 0000111110100000000000000000;
 05 : 1111001010010111110111111110;
 06 : 0000011101100100001101110000;
 07 : 0000000010110111110000011001;
 08 : 0000111110100000000000000000;
 09 : 1111000010010011111101100010;
 0A : 0000111011011000000100110111;
 0B : 1111001000011011111000110111;
 0C : 0000111110100000000000000000;
 0D : 1111000111101000000110110000;
 0E : 0000100111000111110011110011;
 0F : 1111110001110100001111001101;
 10 : 0000111110100000000000000000;
 11 : 1111101011011100001110110000;
 12 : 1111001110111111110110010100;
 13 : 0000110100101111110111100110;
 14 : 0000111110100000000000000000;
 15 : 0000100010011100001101000001;
 16 : 1111100111100100001110011000;
 17 : 1111000010100000000010110110;
 18 : 0000111110100000000000000000;
 19 : 0000111110100000000000000000;
 1A : 0000111110100000000000000000;
 1B : 0000111110100000000000000000;
 1C : 0000111110100000000000000000;
 1D : 0000100010011111110010111110;
 1E : 1111100111100111110001100111;
 1F : 1111000010100011111101001001;
 20 : 0000111110100000000000000000;
 21 : 1111101011011111110001001111;
 22 : 1111001110111100001001101011;
 23 : 0000110100101100001000011001;
 24 : 0000111110100000000000000000;
 25 : 1111000111101011111001001111;
 26 : 0000100111000100001100001100;
 27 : 1111110001110111110000110010;
 28 : 0000111110100000000000000000;
 29 : 1111000010010000000010011101;
 2A : 0000111011011011111011001000;
 2B : 1111001000011000000111001000;
 2C : 0000111110100000000000000000;
 2D : 1111001010010100001000000001;
 2E : 0000011101100111110010001111;
 2F : 0000000010110100001111100110;
 30 : 0000111110100000000000000000;
 31 : 1111001110111100001001101011;
 32 : 0000001110011111110000110011;
 33 : 0000011010010100001110001010;
END;
