WIDTH=28;
DEPTH=1024;
ADDRESS_RADIX=HEX;
DATA_RADIX=BIN;

CONTENT
BEGIN
 00 : 1111111111011100000000000000;
 01 : 0000000000100011111111111100;
 02 : 0000000010000011111111111110;
 03 : 0000000000111000000000001000;
 04 : 0000000001000100000000000010;
 05 : 0000000000111100000000001001;
 06 : 1111111111101000000000000001;
 07 : 1111111111111111111111111011;
 08 : 0000000000010011111111111100;
 09 : 0000000000110111111111111100;
 0A : 0000000000011100000000001111;
 0B : 0000000000010011111111110101;
 0C : 0000000001001111111111110000;
 0D : 1111111111111111111111111111;
 0E : 1111111111111011111111111011;
 0F : 0000000001011111111111111001;
 10 : 0000000000010111111111111111;
 11 : 0000000001000111111111101111;
 12 : 0000000000010000000000000110;
 13 : 0000000000010011111111110001;
 14 : 0000000001001011111111111011;
 15 : 0000000000000011111111111011;
 16 : 0000000000101111111111110010;
 17 : 0000000000101000000000010000;
 18 : 0000000000000100000000000101;
 19 : 0000000000000000000000000101;
 1A : 0000000000110111111111111101;
 1B : 0000000000110111111111111101;
 1C : 1111111111100000000000000001;
 1D : 0000000000001100000000000101;
 1E : 0000000000000111111111111110;
 1F : 1111111111111100000000001011;
 20 : 0000000000101100000000011001;
 21 : 0000000001010000000000000000;
 22 : 0000000000001100000000001111;
 23 : 0000000000010100000000001101;
 24 : 0000000000111100000000010100;
 25 : 0000000001010000000000001110;
 26 : 0000000001101100000000001011;
 27 : 0000000000111100000000100110;
 28 : 0000000010010000000000010110;
 29 : 0000000100101100000000111001;
 2A : 0000001000011000000010011110;
 2B : 1111101101110111111011010010;
 2C : 1111111011101111111110111100;
 2D : 1111111100111111111111101000;
 2E : 1111111110100011111111010010;
 2F : 1111111111001011111111100111;
 30 : 1111111111010111111111101100;
 31 : 1111111110111011111111110000;
 32 : 1111111111110000000000000100;
 33 : 1111111111111011111111101111;
 34 : 1111111110011011111111110111;
 35 : 1111111111011011111111111000;
 36 : 1111111110011111111111101011;
 37 : 1111111111000111111111111011;
 38 : 1111111110010111111111111100;
 39 : 1111111111000011111111101101;
 3A : 1111111111010111111111110000;
 3B : 1111111111100011111111111000;
 3C : 0000000000001111111111110100;
 3D : 1111111111100111111111110111;
 3E : 1111111110110111111111111100;
 3F : 1111111111101011111111110010;
 40 : 1111111111101100000000000101;
 41 : 1111111111001111111111111110;
 42 : 1111111110100011111111111000;
 43 : 0000000000101111111111111010;
 44 : 1111111111111111111111110001;
 45 : 1111111111100011111111111011;
 46 : 0000000000001011111111101000;
 47 : 1111111111010000000000000011;
 48 : 1111111111101111111111111010;
 49 : 0000000000000100000000001001;
 4A : 0000000000001000000000000001;
 4B : 1111111111111000000000000100;
 4C : 0000000001000111111111111110;
 4D : 1111111111101100000000000001;
 4E : 1111111110111111111111101010;
 4F : 0000000000100000000000010000;
 50 : 0000000000001000000000000010;
 51 : 1111111111100100000000000010;
 52 : 1111111111010000000000000010;
 53 : 0000000000100000000000000101;
 54 : 1111111111010000000000000001;
 55 : 1111111111011111111111111011;
 56 : 1111111111110111111111111111;
 57 : 0000000000110000000000001110;
 58 : 1111111111110111111111101101;
 59 : 0000000000110011111111110010;
 5A : 1111111111100111111111110000;
 5B : 0000000000010011111111111110;
 5C : 1111111110111011111111110100;
 5D : 1111111111111111111111111110;
 5E : 0000000000000111111111111100;
 5F : 1111111111110100000000000101;
 60 : 1111111110101011111111110101;
 61 : 1111111111001000000000001010;
 62 : 0000000000110011111111111000;
 63 : 0000000000110111111111110000;
 64 : 0000000000100111111111111111;
 65 : 0000000000100011111111111101;
 66 : 1111111111101100000000000010;
 67 : 0000000000000111111111111000;
 68 : 1111111111110111111111111010;
 69 : 0000000000100000000000000000;
 6A : 0000000000110011111111110011;
 6B : 0000000000111100000000000011;
 6C : 0000000000111100000000000001;
 6D : 0000000000010000000000010111;
 6E : 1111111111111000000000000010;
 6F : 0000000001001000000000000000;
 70 : 1111111111111100000000000111;
 71 : 0000000000011011111111110010;
 72 : 1111111111001100000000000001;
 73 : 0000000000010111111111111111;
 74 : 0000000000100011111111110101;
 75 : 0000000000001011111111110001;
 76 : 0000000000010100000000000111;
 77 : 0000000000001111111111110100;
 78 : 1111111111010111111111111011;
 79 : 0000000000011111111111110110;
 7A : 0000000000000011111111111001;
 7B : 1111111111110011111111110111;
 7C : 0000000000000011111111111100;
 7D : 0000000000100011111111111111;
 7E : 0000000001000011111111111100;
 7F : 1111111111101000000000000001;
 80 : 0000000000000111111111110111;
 81 : 0000000001110111111111111110;
 82 : 1111111111100100000000001110;
 83 : 0000000000100011111111111000;
 84 : 0000000000010011111111110100;
 85 : 0000000000100011111111110000;
 86 : 1111111111011111111111111000;
 87 : 0000000000110100000000000000;
 88 : 0000000000100111111111110000;
 89 : 1111111111101111111111111101;
 8A : 0000000000001111111111111100;
 8B : 1111111110110000000000001110;
 8C : 0000000000000011111111111111;
 8D : 0000000000000100000000000100;
 8E : 1111111111110100000000001111;
 8F : 0000000000101000000000001000;
 90 : 0000000000000111111111111111;
 91 : 0000000000011011111111110000;
 92 : 0000000000110011111111110011;
 93 : 0000000000001111111111111000;
 94 : 1111111110101100000000000101;
 95 : 1111111111100011111111110110;
 96 : 1111111111110011111111111111;
 97 : 1111111111100000000000001000;
 98 : 0000000000010011111111111001;
 99 : 1111111111010011111111110010;
 9A : 0000000001000111111111101001;
 9B : 0000000000001000000000001011;
 9C : 0000000000001000000000000000;
 9D : 1111111111000000000000000101;
 9E : 1111111111101000000000000101;
 9F : 1111111110110011111111111011;
 A0 : 1111111111010100000000000011;
 A1 : 0000000000010000000000001100;
 A2 : 0000000001010111111111111001;
 A3 : 0000000000010100000000000100;
 A4 : 0000000000100000000000001100;
 A5 : 1111111111001111111111111011;
 A6 : 1111111111101011111111111110;
 A7 : 1111111111101011111111111001;
 A8 : 0000000000100011111111111010;
 A9 : 1111111111100100000000010110;
 AA : 0000000001010011111111111101;
 AB : 1111111111111011111111110001;
 AC : 1111111111001011111111101011;
 AD : 1111111111111111111111111000;
 AE : 1111111111111011111111111111;
 AF : 0000000000010011111111110110;
 B0 : 0000000000101111111111110100;
 B1 : 0000000000011000000000000111;
 B2 : 0000000000010111111111110011;
 B3 : 1111111111110011111111110100;
 B4 : 0000000000011111111111111111;
 B5 : 1111111110110011111111110011;
 B6 : 1111111111101111111111111100;
 B7 : 1111111111110111111111101111;
 B8 : 0000000000001111111111111010;
 B9 : 1111111111101100000000000101;
 BA : 1111111111100000000000000011;
 BB : 1111111111111111111111111110;
 BC : 1111111111110000000000001000;
 BD : 1111111111011011111111111101;
 BE : 0000000000001011111111100101;
 BF : 1111111111111000000000000100;
 C0 : 1111111111101100000000001000;
 C1 : 1111111111110000000000000010;
 C2 : 1111111111101011111111111000;
 C3 : 0000000000011011111111100101;
 C4 : 0000000000011111111111110110;
 C5 : 0000000000010111111111111100;
 C6 : 1111111111011100000000001011;
 C7 : 0000000000011000000000000101;
 C8 : 1111111111111111111111110100;
 C9 : 1111111111011111111111111110;
 CA : 0000000000101011111111110100;
 CB : 0000000000001011111111111101;
 CC : 1111111111110100000000000110;
 CD : 1111111111110100000000001001;
 CE : 0000000000101000000000000111;
 CF : 1111111111110100000000001001;
 D0 : 1111111111100011111111110000;
 D1 : 0000000000010000000000000000;
 D2 : 0000000001001000000000001001;
 D3 : 1111111111111000000000001000;
 D4 : 0000000000001000000000000111;
 D5 : 0000000000101111111111110110;
 D6 : 0000000000000011111111110011;
 D7 : 1111111111011111111111111011;
 D8 : 1111111111011000000000000101;
 D9 : 1111111111100100000000000100;
 DA : 0000000000110000000000000000;
 DB : 0000000000011100000000001001;
 DC : 0000000000111000000000001100;
 DD : 1111111111101100000000000100;
 DE : 0000000000100000000000001001;
 DF : 1111111111111100000000001011;
 E0 : 0000000000010011111111111110;
 E1 : 0000000000010000000000000111;
 E2 : 0000000000011111111111111111;
 E3 : 1111111111111100000000000100;
 E4 : 0000000000010111111111111110;
 E5 : 1111111111101100000000000100;
 E6 : 1111111111100000000000000000;
 E7 : 0000000000010011111111110010;
 E8 : 0000000000110111111111111001;
 E9 : 1111111111100011111111111010;
 EA : 0000000000000000000000001101;
 EB : 0000000000001000000000000111;
 EC : 0000000000001100000000000110;
 ED : 0000000001000100000000000111;
 EE : 1111111111100000000000000011;
 EF : 0000000000010011111111111100;
 F0 : 0000000000100000000000000010;
 F1 : 1111111111101111111111111011;
 F2 : 1111111111101011111111110011;
 F3 : 1111111111100111111111111101;
 F4 : 0000000000110000000000000001;
 F5 : 0000000001011111111111111010;
 F6 : 0000000000100100000000000001;
 F7 : 0000000000001000000000000011;
 F8 : 0000000000100000000000010010;
 F9 : 0000000000000000000000001000;
 FA : 1111111111001111111111111000;
 FB : 1111111111100000000000000101;
 FC : 1111111111100100000000001001;
 FD : 0000000000101000000000000001;
 FE : 1111111111011100000000000011;
 FF : 0000000000101000000000000011;
 100 : 0000000000000011111111111111;
 101 : 0000000000010100000000000001;
 102 : 1111111111111011111111111110;
 103 : 0000000000000011111111110110;
 104 : 1111111111101100000000000111;
 105 : 0000000000000011111111111001;
 106 : 0000000000010011111111111111;
 107 : 0000000000100111111111111001;
 108 : 0000000000001000000000000111;
 109 : 0000000000101100000000000000;
 10A : 0000000000010100000000001001;
 10B : 0000000001000011111111110110;
 10C : 0000000000011111111111111001;
 10D : 0000000001001111111111111001;
 10E : 1111111111011000000000000001;
 10F : 1111111111011000000000001010;
 110 : 1111111111010000000000000000;
 111 : 0000000000111111111111111011;
 112 : 1111111111100100000000001010;
 113 : 1111111111011111111111101110;
 114 : 0000000000001100000000000010;
 115 : 0000000000100111111111111000;
 116 : 0000000000100011111111110111;
 117 : 1111111111010011111111110011;
 118 : 0000000000100100000000000000;
 119 : 0000000000011011111111110101;
 11A : 0000000000010100000000000010;
 11B : 0000000000100011111111111100;
 11C : 0000000000101011111111110110;
 11D : 1111111111011011111111111111;
 11E : 0000000000000111111111111010;
 11F : 0000000000000111111111101101;
 120 : 1111111111111111111111111101;
 121 : 0000000000000011111111111010;
 122 : 1111111111110111111111101111;
 123 : 0000000000101000000000000110;
 124 : 0000000000110100000000000111;
 125 : 1111111111100100000000000000;
 126 : 1111111111111011111111111011;
 127 : 0000000000010111111111111101;
 128 : 0000000000101100000000000010;
 129 : 1111111111000011111111111100;
 12A : 1111111111110011111111111101;
 12B : 0000000000001011111111111011;
 12C : 0000000000101011111111111001;
 12D : 0000000000000011111111110111;
 12E : 1111111110111011111111110111;
 12F : 1111111111010111111111101111;
 130 : 0000000000010100000000000000;
 131 : 1111111111110111111111110100;
 132 : 0000000000001011111111111000;
 133 : 0000000000010111111111111101;
 134 : 0000000000001011111111111010;
 135 : 0000000000100011111111111110;
 136 : 1111111111110111111111111110;
 137 : 0000000000101011111111111101;
 138 : 0000000000110000000000001100;
 139 : 1111111111111100000000001100;
 13A : 0000000000111111111111111100;
 13B : 0000000000011000000000000100;
 13C : 1111111111010000000000001000;
 13D : 1111111111110000000000001001;
 13E : 1111111111111100000000000100;
 13F : 1111111111110000000000001000;
 140 : 1111111111101100000000001000;
 141 : 0000000000110111111111101111;
 142 : 0000000000000111111111110000;
 143 : 0000000000001100000000000101;
 144 : 1111111111111111111111111011;
 145 : 1111111111001111111111111101;
 146 : 1111111111011000000000000011;
 147 : 1111111111001011111111111111;
 148 : 1111111111111011111111111011;
 149 : 0000000000000011111111111101;
 14A : 1111111111100111111111111110;
 14B : 1111111111010100000000000010;
 14C : 1111111111111111111111111011;
 14D : 1111111111101011111111111000;
 14E : 0000000000110111111111111110;
 14F : 0000000000011100000000001010;
 150 : 1111111110111111111111111101;
 151 : 1111111111110100000000001011;
 152 : 1111111111110011111111111010;
 153 : 0000000000110100000000001100;
 154 : 1111111110111111111111111001;
 155 : 0000000000001011111111111111;
 156 : 1111111110110100000000000101;
 157 : 0000000000000100000000001000;
 158 : 0000000000111100000000000011;
 159 : 0000000000010011111111111001;
 15A : 1111111111101111111111111000;
 15B : 1111111111011000000000010010;
 15C : 0000000000011111111111110001;
 15D : 1111111111100100000000000011;
 15E : 0000000000001111111111111111;
 15F : 0000000001001011111111110011;
 160 : 1111111111110000000000000000;
 161 : 0000000000001000000000000010;
 162 : 1111111111110111111111110100;
 163 : 1111111111110000000000000111;
 164 : 0000000001000111111111110110;
 165 : 0000000001000100000000000001;
 166 : 0000000000010000000000000100;
 167 : 0000000000110011111111111000;
 168 : 0000000000001100000000000101;
 169 : 1111111111111111111111111101;
 16A : 1111111111100111111111101111;
 16B : 1111111111111111111111110001;
 16C : 0000000000101100000000001111;
 16D : 0000000000111100000000000101;
 16E : 1111111111110100000000000100;
 16F : 1111111111000011111111110101;
 170 : 0000000000011000000000000011;
 171 : 0000000000001000000000010000;
 172 : 0000000000001011111111111000;
 173 : 1111111111100111111111111011;
 174 : 0000000000000011111111110101;
 175 : 0000000000110000000000000100;
 176 : 0000000000011011111111110001;
 177 : 1111111111011100000000000100;
 178 : 1111111111100011111111110101;
 179 : 0000000000101111111111110011;
 17A : 0000000000101011111111101010;
 17B : 0000000000011111111111110011;
 17C : 0000000000010011111111110110;
 17D : 1111111111110111111111111011;
 17E : 0000000000010111111111111001;
 17F : 0000000000101111111111111110;
 180 : 0000000000101111111111110111;
 181 : 0000000000110011111111110110;
 182 : 0000000001000011111111110011;
 183 : 1111111111010111111111110101;
 184 : 0000000000000000000000000010;
 185 : 1111111111101111111111111110;
 186 : 1111111111000011111111110010;
 187 : 1111111111001100000000000110;
 188 : 1111111111001100000000000011;
 189 : 1111111111011111111111111101;
 18A : 1111111110111011111111111001;
 18B : 0000000000100011111111111101;
 18C : 0000000000010100000000000100;
 18D : 1111111111011111111111111110;
 18E : 1111111111110100000000000011;
 18F : 0000000000011111111111111110;
 190 : 0000000000010111111111110100;
 191 : 1111111111101111111111111001;
 192 : 0000000000001100000000001011;
 193 : 1111111111110011111111111001;
 194 : 0000000000010100000000001001;
 195 : 1111111111110111111111110101;
 196 : 1111111111111100000000001000;
 197 : 0000000000010100000000000001;
 198 : 0000000000100111111111111011;
 199 : 1111111111101011111111111011;
 19A : 0000000000000111111111111100;
 19B : 1111111111110011111111110100;
 19C : 0000000000000011111111111101;
 19D : 1111111111101011111111110101;
 19E : 0000000000010011111111110010;
 19F : 1111111111000000000000000011;
 1A0 : 0000000000111100000000001010;
 1A1 : 0000000000110011111111111111;
 1A2 : 1111111110110100000000000000;
 1A3 : 1111111111011111111111111110;
 1A4 : 1111111111011011111111110101;
 1A5 : 1111111111100111111111101100;
 1A6 : 1111111111111000000000000000;
 1A7 : 1111111111000000000000001100;
 1A8 : 1111111111111011111111101111;
 1A9 : 1111111111100000000000001010;
 1AA : 1111111111101011111111111011;
 1AB : 0000000000000000000000001000;
 1AC : 0000000000000000000000001100;
 1AD : 1111111111100100000000001000;
 1AE : 1111111111110000000000000111;
 1AF : 0000000000111100000000001001;
 1B0 : 0000000000000100000000001000;
 1B1 : 0000000000101111111111111001;
 1B2 : 1111111111100111111111111111;
 1B3 : 1111111111001100000000000011;
 1B4 : 1111111111101111111111111011;
 1B5 : 1111111111001000000000000010;
 1B6 : 0000000000011011111111111000;
 1B7 : 1111111111100100000000000100;
 1B8 : 0000000000000000000000000001;
 1B9 : 1111111111111100000000001001;
 1BA : 0000000000111111111111110001;
 1BB : 1111111110000111111111111101;
 1BC : 0000000000000000000000000010;
 1BD : 0000000000011111111111110101;
 1BE : 1111111111110100000000000011;
 1BF : 1111111111100100000000000100;
 1C0 : 0000000000000011111111111001;
 1C1 : 0000000000001111111111111100;
 1C2 : 1111111111010100000000000110;
 1C3 : 0000000000001000000000000101;
 1C4 : 0000000000000111111111110100;
 1C5 : 1111111111101011111111111010;
 1C6 : 1111111111011000000000000000;
 1C7 : 1111111111111011111111111010;
 1C8 : 1111111111110000000000000100;
 1C9 : 1111111111010100000000000110;
 1CA : 1111111111100111111111111011;
 1CB : 0000000000001100000000000101;
 1CC : 0000000000010111111111110100;
 1CD : 0000000000101111111111110110;
 1CE : 0000000001000000000000000000;
 1CF : 0000000000001111111111111100;
 1D0 : 0000000000001100000000000111;
 1D1 : 0000000000010011111111111000;
 1D2 : 1111111111111011111111111010;
 1D3 : 1111111111110011111111110110;
 1D4 : 1111111111100100000000010010;
 1D5 : 0000000000010011111111111000;
 1D6 : 0000000000000111111111101110;
 1D7 : 0000000000110000000000001011;
 1D8 : 1111111111111100000000000011;
 1D9 : 1111111111111011111111110010;
 1DA : 1111111111101011111111111100;
 1DB : 1111111111111111111111111111;
 1DC : 1111111111101111111111111101;
 1DD : 0000000001001111111111101111;
 1DE : 0000000001000000000000000110;
 1DF : 1111111111111000000000001000;
 1E0 : 1111111111111000000000001010;
 1E1 : 0000000000110011111111111000;
 1E2 : 1111111110111100000000000000;
 1E3 : 1111111111101111111111111000;
 1E4 : 0000000000100000000000001011;
 1E5 : 0000000000000111111111111111;
 1E6 : 0000000000011100000000000000;
 1E7 : 0000000000010111111111111100;
 1E8 : 0000000000000011111111111001;
 1E9 : 0000000000011111111111111001;
 1EA : 1111111111011000000000000011;
 1EB : 1111111111101000000000000110;
 1EC : 0000000000100000000000001110;
 1ED : 1111111111111111111111111100;
 1EE : 1111111110111000000000000110;
 1EF : 0000000000010100000000000000;
 1F0 : 1111111110010111111111110111;
 1F1 : 1111111111011011111111111000;
 1F2 : 1111111111101011111111101010;
 1F3 : 1111111110110000000000001010;
 1F4 : 1111111111111100000000001010;
 1F5 : 0000000000000000000000000110;
 1F6 : 0000000000011000000000001001;
 1F7 : 0000000000100100000000000000;
 1F8 : 0000000000110100000000000010;
 1F9 : 1111111111111111111111100001;
 1FA : 1111111111101111111111111000;
 1FB : 1111111111010011111111111101;
 1FC : 0000000000011000000000000011;
 1FD : 1111111111111011111111110111;
 1FE : 1111111111100000000000000010;
 1FF : 1111111111111111111111110100;
 200 : 0000000000100100000000000000;
 201 : 1111111111111100000000001011;
 202 : 1111111111100011111111111101;
 203 : 1111111111111000000000001000;
 204 : 0000000000011011111111111100;
 205 : 1111111111010000000000000010;
 206 : 1111111111101100000000000111;
 207 : 1111111111111100000000011110;
 208 : 0000000000110111111111111101;
 209 : 0000000000100111111111111111;
 20A : 0000000000011011111111110110;
 20B : 0000000000000011111111111001;
 20C : 1111111111111111111111110101;
 20D : 1111111110110011111111110101;
 20E : 1111111111101000000000010101;
 20F : 1111111111011000000000000111;
 210 : 1111111110010100000000001000;
 211 : 0000000000010111111111111111;
 212 : 1111111110111011111111111001;
 213 : 1111111111111100000000000011;
 214 : 0000000000100011111111110001;
 215 : 1111111111101011111111111001;
 216 : 1111111111011011111111111100;
 217 : 0000000000011100000000000110;
 218 : 0000000000000000000000000110;
 219 : 0000000000010100000000000011;
 21A : 0000000000011111111111111111;
 21B : 0000000000000100000000000000;
 21C : 0000000000100011111111110100;
 21D : 1111111111101100000000000111;
 21E : 1111111110111111111111111111;
 21F : 0000000000110000000000000111;
 220 : 1111111111111011111111110101;
 221 : 1111111111111011111111110111;
 222 : 0000000001000011111111111001;
 223 : 0000000001001100000000010000;
 224 : 1111111111101100000000000010;
 225 : 1111111111111100000000000000;
 226 : 1111111111101000000000000011;
 227 : 1111111111111000000000001101;
 228 : 1111111111111111111111111100;
 229 : 0000000000110011111111110100;
 22A : 0000000000000100000000010001;
 22B : 0000000000010000000000000111;
 22C : 1111111111100111111111101101;
 22D : 1111111111110000000000001001;
 22E : 1111111111111000000000000101;
 22F : 0000000000010000000000000111;
 230 : 0000000000001111111111111000;
 231 : 0000000000001100000000000011;
 232 : 0000000001000011111111111111;
 233 : 0000000000101100000000001001;
 234 : 0000000000010100000000001011;
 235 : 0000000000001111111111111010;
 236 : 1111111111100100000000000100;
 237 : 1111111111010111111111111001;
 238 : 1111111111110011111111111011;
 239 : 1111111111111000000000000101;
 23A : 1111111111011011111111111111;
 23B : 1111111111101000000000000101;
 23C : 0000000000000100000000001011;
 23D : 0000000000001011111111111010;
 23E : 1111111111010111111111111001;
 23F : 0000000000001100000000000011;
 240 : 0000000000000000000000000110;
 241 : 1111111111100111111111111011;
 242 : 1111111111110111111111111100;
 243 : 0000000000011100000000001010;
 244 : 0000000000000011111111111101;
 245 : 1111111110000100000000000010;
 246 : 0000000000111100000000001110;
 247 : 1111111111111111111111110110;
 248 : 0000000000000011111111111110;
 249 : 1111111111100111111111111011;
 24A : 0000000000011000000000000111;
 24B : 1111111111001011111111111101;
 24C : 1111111111101100000000000100;
 24D : 1111111111001111111111111100;
 24E : 1111111111100100000000000000;
 24F : 0000000000101100000000000110;
 250 : 0000000000000111111111110111;
 251 : 0000000000111111111111110110;
 252 : 1111111111110011111111111000;
 253 : 1111111111100111111111110111;
 254 : 0000000000000011111111110011;
 255 : 0000000000000011111111110111;
 256 : 1111111111101000000000000100;
 257 : 1111111111100011111111110101;
 258 : 1111111111111000000000010000;
 259 : 1111111111000011111111110011;
 25A : 1111111111111011111111111111;
 25B : 1111111111100100000000010011;
 25C : 1111111111011000000000001010;
 25D : 1111111111011100000000000001;
 25E : 1111111110110111111111111111;
 25F : 0000000000110000000000000000;
 260 : 0000000000111111111111110101;
 261 : 1111111111000011111111111100;
 262 : 0000000000010000000000001101;
 263 : 1111111111101000000000001010;
 264 : 0000000000000000000000000010;
 265 : 1111111111110000000000001011;
 266 : 0000000000000100000000000011;
 267 : 1111111111101000000000000100;
 268 : 0000000000100100000000000100;
 269 : 0000000000010111111111111110;
 26A : 1111111111111111111111110111;
 26B : 1111111111110100000000001010;
 26C : 0000000000010111111111110110;
 26D : 1111111111110000000000000110;
 26E : 0000000000001111111111110100;
 26F : 1111111111101100000000000110;
 270 : 0000000000010100000000001011;
 271 : 0000000000011100000000000001;
 272 : 1111111111110111111111111100;
 273 : 1111111111011100000000000001;
 274 : 0000000000010111111111111011;
 275 : 0000000000100000000000000010;
 276 : 1111111110111000000000000110;
 277 : 1111111111011100000000000010;
 278 : 1111111111001111111111111100;
 279 : 1111111111001111111111111001;
 27A : 1111111111000000000000001101;
 27B : 1111111111101100000000000001;
 27C : 0000000000000011111111111101;
 27D : 1111111111010100000000001010;
 27E : 0000000001000000000000001100;
 27F : 0000000000110000000000001001;
 280 : 0000000000101100000000001000;
 281 : 0000000000101100000000000001;
 282 : 0000000000010100000000000110;
 283 : 1111111111110100000000000100;
 284 : 0000000000010000000000001001;
 285 : 0000000000011100000000001100;
 286 : 0000000000101000000000010101;
 287 : 0000000000101100000000001100;
 288 : 1111111111100000000000001010;
 289 : 1111111111011111111111111011;
 28A : 0000000000011000000000001110;
 28B : 0000000000110011111111111011;
 28C : 0000000000000000000000001010;
 28D : 1111111111100100000000000100;
 28E : 0000000000001000000000000111;
 28F : 0000000000001011111111101111;
 290 : 0000000000011011111111111100;
 291 : 1111111111000000000000001010;
 292 : 1111111111110111111111111011;
 293 : 0000000000111111111111111010;
 294 : 0000000000101111111111110000;
 295 : 1111111111111100000000001110;
 296 : 1111111111100100000000010000;
 297 : 1111111111111100000000000010;
 298 : 0000000000001111111111111010;
 299 : 0000000000110000000000000111;
 29A : 0000000000010011111111111011;
 29B : 0000000001000111111111111110;
 29C : 0000000001000100000000001001;
 29D : 1111111111110011111111111000;
 29E : 1111111111110100000000001011;
 29F : 0000000000001011111111111101;
 2A0 : 1111111111110011111111111111;
 2A1 : 0000000001001000000000001100;
 2A2 : 0000000000001100000000000000;
 2A3 : 1111111111100111111111111100;
 2A4 : 0000000000011100000000001110;
 2A5 : 1111111111011011111111101101;
 2A6 : 1111111111101100000000000111;
 2A7 : 0000000000010000000000000110;
 2A8 : 0000000000111111111111111100;
 2A9 : 0000000000000111111111110111;
 2AA : 1111111110110111111111111010;
 2AB : 0000000000001000000000000000;
 2AC : 1111111110111100000000000110;
 2AD : 0000000000110111111111110011;
 2AE : 1111111111110000000000000101;
 2AF : 1111111111110111111111110100;
 2B0 : 1111111110111100000000000010;
 2B1 : 0000000000011111111111110101;
 2B2 : 0000000000110100000000000001;
 2B3 : 1111111111101000000000000111;
 2B4 : 1111111111111100000000000100;
 2B5 : 1111111111010111111111111101;
 2B6 : 1111111111100100000000000001;
 2B7 : 0000000000000000000000000010;
 2B8 : 1111111111111000000000000100;
 2B9 : 1111111111001000000000000000;
 2BA : 1111111111011011111111111100;
 2BB : 1111111111001100000000000010;
 2BC : 1111111111111100000000000100;
 2BD : 0000000000001111111111111010;
 2BE : 0000000000000100000000001111;
 2BF : 0000000000110100000000010000;
 2C0 : 1111111111101111111111110111;
 2C1 : 1111111111110011111111110111;
 2C2 : 1111111111111111111111111011;
 2C3 : 1111111111110011111111110110;
 2C4 : 1111111111010011111111110111;
 2C5 : 0000000000011011111111111011;
 2C6 : 0000000000111100000000000011;
 2C7 : 1111111111111111111111110011;
 2C8 : 0000000000110011111111110011;
 2C9 : 0000000000101000000000000010;
 2CA : 1111111111110100000000000001;
 2CB : 0000000000100000000000000001;
 2CC : 0000000000001000000000000101;
 2CD : 0000000000010100000000000010;
 2CE : 0000000000001000000000000111;
 2CF : 1111111111110100000000001011;
 2D0 : 0000000000010111111111111111;
 2D1 : 1111111111010100000000010000;
 2D2 : 1111111110111000000000001000;
 2D3 : 0000000000000000000000001000;
 2D4 : 0000000000101000000000000110;
 2D5 : 0000000000001000000000000100;
 2D6 : 1111111111110000000000000010;
 2D7 : 1111111111000000000000000011;
 2D8 : 0000000000101111111111111101;
 2D9 : 0000000000010100000000000010;
 2DA : 1111111111111000000000000100;
 2DB : 1111111111100111111111111111;
 2DC : 0000000000110111111111111000;
 2DD : 0000000000101011111111111001;
 2DE : 1111111111110100000000010000;
 2DF : 0000000000000000000000000101;
 2E0 : 1111111111111100000000000010;
 2E1 : 0000000000000100000000010010;
 2E2 : 0000000000000100000000000101;
 2E3 : 1111111111011000000000000000;
 2E4 : 0000000000101000000000001001;
 2E5 : 0000000000100000000000000011;
 2E6 : 0000000000010111111111111101;
 2E7 : 0000000000011000000000001010;
 2E8 : 0000000000100111111111111111;
 2E9 : 1111111111010000000000001100;
 2EA : 0000000000100000000000001000;
 2EB : 0000000000100100000000000111;
 2EC : 0000000000001111111111111101;
 2ED : 1111111111011100000000010001;
 2EE : 1111111111100111111111110101;
 2EF : 0000000000111100000000000100;
 2F0 : 1111111111010011111111111111;
 2F1 : 1111111111011011111111110101;
 2F2 : 1111111111011011111111111110;
 2F3 : 0000000001001100000000000110;
 2F4 : 0000000000011100000000000110;
 2F5 : 0000000001000000000000001001;
 2F6 : 0000000000010111111111110110;
 2F7 : 0000000000101111111111111111;
 2F8 : 0000000000001011111111111000;
 2F9 : 0000000000100100000000000110;
 2FA : 0000000000010000000000000000;
 2FB : 0000000000000000000000000110;
 2FC : 1111111111101111111111111000;
 2FD : 0000000000000000000000001001;
 2FE : 1111111111111000000000000001;
 2FF : 0000000000010111111111111110;
 300 : 0000000000000000000000000000;
 301 : 0000000000101011111111111100;
 302 : 1111111111011111111111111100;
 303 : 0000000000101011111111111110;
 304 : 1111111111100111111111110110;
 305 : 1111111111100011111111111010;
 306 : 1111111111001100000000000111;
 307 : 0000000000000011111111110111;
 308 : 0000000000100011111111101101;
 309 : 0000000000001011111111111100;
 30A : 0000000000100111111111111110;
 30B : 0000000001011100000000000101;
 30C : 0000000000110011111111111110;
 30D : 1111111111100100000000000010;
 30E : 1111111111101000000000001100;
 30F : 1111111111101100000000000100;
 310 : 0000000000100011111111111101;
 311 : 0000000000010000000000000011;
 312 : 1111111111100011111111111100;
 313 : 0000000001000111111111111000;
 314 : 0000000000001111111111111001;
 315 : 0000000000001011111111111000;
 316 : 0000000000000011111111110010;
 317 : 1111111111100000000000000101;
 318 : 0000000000110100000000000110;
 319 : 0000000000010000000000001101;
 31A : 1111111111100011111111111111;
 31B : 1111111111101111111111111011;
 31C : 0000000000010100000000000001;
 31D : 1111111111111111111111111011;
 31E : 0000000000011100000000000000;
 31F : 0000000000010011111111111000;
 320 : 0000000000010000000000000001;
 321 : 1111111111111111111111110100;
 322 : 0000000000100011111111110110;
 323 : 1111111111101111111111111011;
 324 : 0000000000111011111111110011;
 325 : 0000000000011111111111110110;
 326 : 0000000000110011111111111111;
 327 : 1111111111100111111111111011;
 328 : 1111111111011011111111111010;
 329 : 1111111111011100000000000100;
 32A : 0000000000000000000000001100;
 32B : 0000000000101100000000001001;
 32C : 0000000000001011111111111000;
 32D : 1111111111111011111111110111;
 32E : 0000000001001011111111110110;
 32F : 0000000000010011111111111111;
 330 : 1111111111100000000000001111;
 331 : 1111111111110111111111110110;
 332 : 0000000000101011111111111000;
 333 : 1111111111110111111111110110;
 334 : 1111111111110111111111111001;
 335 : 0000000000001000000000000010;
 336 : 0000000000101000000000001011;
 337 : 1111111111011100000000000001;
 338 : 1111111111111100000000001011;
 339 : 0000000000011011111111111010;
 33A : 1111111111011111111111110100;
 33B : 0000000000010100000000000011;
 33C : 0000000000011100000000001001;
 33D : 0000000000011000000000011010;
 33E : 1111111111101000000000000111;
 33F : 1111111111110011111111111101;
 340 : 1111111111101111111111110111;
 341 : 1111111111111011111111111011;
 342 : 0000000000001000000000011010;
 343 : 1111111111011000000000000010;
 344 : 1111111111110011111111110111;
 345 : 1111111111111100000000000001;
 346 : 1111111111100011111111111100;
 347 : 1111111111101111111111111010;
 348 : 0000000000001100000000000101;
 349 : 1111111111110100000000010000;
 34A : 1111111111101100000000000011;
 34B : 1111111110110000000000001100;
 34C : 0000000000011100000000000000;
 34D : 1111111111110000000000001011;
 34E : 0000000000010100000000001100;
 34F : 0000000000011011111111111000;
 350 : 0000000000101100000000001011;
 351 : 0000000000010000000000001001;
 352 : 1111111111111000000000000000;
 353 : 1111111111111100000000000111;
 354 : 1111111111001000000000010100;
 355 : 1111111111111000000000001110;
 356 : 0000000001010000000000000010;
 357 : 1111111111100111111111101001;
 358 : 0000000000100000000000000101;
 359 : 1111111111101000000000000110;
 35A : 1111111111101000000000000001;
 35B : 1111111111001100000000000100;
 35C : 0000000000100011111111110011;
 35D : 0000000000010111111111111011;
 35E : 0000000001010100000000000110;
 35F : 0000000000010011111111110011;
 360 : 1111111111010111111111111100;
 361 : 1111111110110000000000000100;
 362 : 1111111111101011111111111010;
 363 : 1111111111000011111111111010;
 364 : 0000000000001011111111111111;
 365 : 0000000000001011111111110100;
 366 : 0000000001000100000000010110;
 367 : 1111111111010000000000001101;
 368 : 0000000000010000000000000110;
 369 : 1111111111100011111111110111;
 36A : 1111111111110000000000000000;
 36B : 1111111111100000000000001001;
 36C : 1111111110101111111111111010;
 36D : 0000000000001100000000000111;
 36E : 0000000000110000000000001100;
 36F : 0000000000011000000000001111;
 370 : 0000000000000100000000000000;
 371 : 0000000000101011111111110111;
 372 : 1111111111110111111111110000;
 373 : 0000000000000111111111111011;
 374 : 0000000000000000000000000000;
 375 : 1111111110110011111111110001;
 376 : 0000000000001100000000000011;
 377 : 1111111111101100000000000010;
 378 : 0000000000100100000000001111;
 379 : 0000000000110111111111111111;
 37A : 1111111111011100000000000111;
 37B : 0000000000100000000000001111;
 37C : 0000000000010000000000001011;
 37D : 0000000000100000000000000111;
 37E : 1111111111100111111111110001;
 37F : 0000000001110100000000000001;
 380 : 0000000000000100000000001000;
 381 : 1111111111101011111111111110;
 382 : 0000000001000000000000000011;
 383 : 0000000000100000000000000000;
 384 : 0000000000000000000000000011;
 385 : 1111111111110000000000001000;
 386 : 0000000000000000000000000110;
 387 : 0000000000011100000000001001;
 388 : 1111111111010100000000000100;
 389 : 0000000000001100000000001011;
 38A : 0000000000010111111111111000;
 38B : 0000000000001000000000001110;
 38C : 0000000000100000000000001010;
 38D : 0000000000010100000000000000;
 38E : 1111111111001111111111111110;
 38F : 0000000000011000000000001101;
 390 : 1111111111111111111111111000;
 391 : 0000000001001011111111111111;
 392 : 1111111111111011111111111101;
 393 : 0000000000010011111111101000;
 394 : 0000000000111111111111111110;
 395 : 0000000000111111111111111100;
 396 : 0000000000110000000000001100;
 397 : 0000000000100011111111111111;
 398 : 1111111111110100000000000101;
 399 : 0000000000000100000000000111;
 39A : 1111111111101111111111111101;
 39B : 0000000000100000000000000010;
 39C : 0000000000100100000000000000;
 39D : 0000000000110100000000001111;
 39E : 0000000000110000000000000111;
 39F : 1111111111001011111111110101;
 3A0 : 1111111110101000000000001010;
 3A1 : 1111111111110111111111111010;
 3A2 : 0000000000000100000000000011;
 3A3 : 1111111111111100000000000001;
 3A4 : 1111111110111000000000001011;
 3A5 : 0000000000010000000000000001;
 3A6 : 1111111111100100000000001111;
 3A7 : 0000000000110000000000001101;
 3A8 : 1111111111110100000000010010;
 3A9 : 0000000000110011111111110001;
 3AA : 1111111111110100000000000000;
 3AB : 1111111111011100000000000100;
 3AC : 1111111111010011111111111110;
 3AD : 0000000000100011111111111010;
 3AE : 1111111111010011111111111101;
 3AF : 1111111111100111111111111101;
 3B0 : 0000000000001011111111111101;
 3B1 : 0000000000100011111111101111;
 3B2 : 1111111110111100000000010101;
 3B3 : 1111111111101111111111111110;
 3B4 : 0000000001000100000000000001;
 3B5 : 1111111111111011111111111011;
 3B6 : 0000000000001011111111111110;
 3B7 : 0000000000000111111111110110;
 3B8 : 1111111111101100000000000101;
 3B9 : 1111111111010011111111111100;
 3BA : 0000000000001000000000010111;
 3BB : 1111111111100000000000000100;
 3BC : 1111111111111100000000001110;
 3BD : 0000000000101100000000000101;
 3BE : 1111111110100000000000000111;
 3BF : 1111111111001100000000000001;
 3C0 : 1111111111101111111111111010;
 3C1 : 1111111111101000000000001101;
 3C2 : 1111111110110100000000000011;
 3C3 : 1111111111100100000000001000;
 3C4 : 0000000000001100000000001011;
 3C5 : 1111111111100000000000000111;
 3C6 : 1111111111010100000000001111;
 3C7 : 1111111111000000000000010010;
 3C8 : 1111111110010100000000000011;
 3C9 : 1111111111000100000000000100;
 3CA : 1111111110011100000000010100;
 3CB : 1111111111011000000000000111;
 3CC : 1111111110011000000000001000;
 3CD : 1111111111111000000000010000;
 3CE : 1111111111110011111111111011;
 3CF : 1111111110111000000000001111;
 3D0 : 1111111111010100000000010011;
 3D1 : 1111111111001000000000011000;
 3D2 : 1111111110100000000000101101;
 3D3 : 1111111100111100000000010111;
 3D4 : 1111111011101100000001000011;
 3D5 : 1111101101110100000100101101;
 3D6 : 0000001000011011111101100001;
 3D7 : 0000000100101111111111000110;
 3D8 : 0000000010010011111111101001;
 3D9 : 0000000000111111111111011001;
 3DA : 0000000001101111111111110100;
 3DB : 0000000001010011111111110001;
 3DC : 0000000000111111111111101011;
 3DD : 0000000000010111111111110010;
 3DE : 0000000000001111111111110000;
 3DF : 0000000001010011111111111111;
 3E0 : 0000000000101111111111100110;
 3E1 : 1111111111111111111111110100;
 3E2 : 0000000000000100000000000001;
 3E3 : 0000000000001111111111111010;
 3E4 : 1111111111100011111111111110;
 3E5 : 0000000000110100000000000010;
 3E6 : 0000000000110100000000000010;
 3E7 : 0000000000000011111111111010;
 3E8 : 0000000000000111111111111010;
 3E9 : 0000000000101011111111101111;
 3EA : 0000000000101100000000001101;
 3EB : 0000000000000000000000000100;
 3EC : 0000000001001000000000000100;
 3ED : 0000000000010000000000001110;
 3EE : 0000000000010011111111111001;
 3EF : 0000000001000100000000010000;
 3F0 : 0000000000010100000000000000;
 3F1 : 0000000001011100000000000110;
 3F2 : 1111111111111000000000000100;
 3F3 : 1111111111111100000000000000;
 3F4 : 0000000001001100000000001111;
 3F5 : 0000000000010000000000001010;
 3F6 : 0000000000011111111111110000;
 3F7 : 0000000000110100000000000011;
 3F8 : 0000000000010000000000000011;
 3F9 : 1111111111111100000000000100;
 3FA : 1111111111101011111111111110;
 3FB : 0000000000111111111111110110;
 3FC : 0000000001000111111111111101;
 3FD : 0000000000111011111111110111;
 3FE : 0000000010000000000000000001;
 3FF : 0000000000100000000000000011;
END;
