WIDTH=28;
DEPTH=1024;
ADDRESS_RADIX=HEX;
DATA_RADIX=BIN;

CONTENT
BEGIN
 00 : 0000000001001100000000000000;
 01 : 0000000001000111111111110100;
 02 : 1111111111101111111111111010;
 03 : 0000000000101000000000010011;
 04 : 0000000000101100000000000101;
 05 : 0000000000010011111111110111;
 06 : 0000000000010111111111111110;
 07 : 1111111111100000000000010001;
 08 : 0000000001001000000000001100;
 09 : 1111111111110111111111101110;
 0A : 0000000000010011111111110110;
 0B : 1111111111000111111111111001;
 0C : 0000000000010011111111111110;
 0D : 1111111111000111111111110111;
 0E : 1111111111000111111111111101;
 0F : 0000000001000011111111110001;
 10 : 1111111111100100000000000100;
 11 : 0000000000101000000000001000;
 12 : 0000000000000100000000000110;
 13 : 1111111111011100000000001110;
 14 : 1111111111111011111111111010;
 15 : 0000000000100111111111110010;
 16 : 0000000001001011111111111000;
 17 : 1111111111010011111111111010;
 18 : 1111111110110000000000000100;
 19 : 1111111110111111111111110010;
 1A : 0000000001000011111111111010;
 1B : 1111111111101000000000001000;
 1C : 0000000000010111111111101010;
 1D : 0000000000010011111111111101;
 1E : 1111111111011000000000001001;
 1F : 1111111110111000000000000011;
 20 : 1111111111100111111111100001;
 21 : 1111111111111011111111110110;
 22 : 0000000000001011111111101001;
 23 : 1111111111010111111111110110;
 24 : 1111111111110011111111100010;
 25 : 1111111111001011111111101100;
 26 : 1111111110111011111111100011;
 27 : 1111111111101111111111011111;
 28 : 1111111111110011111111010110;
 29 : 1111111110011111111110110111;
 2A : 1111111100010011111100110001;
 2B : 0000000101111000000110011011;
 2C : 0000000001101100000001100001;
 2D : 0000000000101000000000111100;
 2E : 0000000000110000000000101010;
 2F : 0000000000100100000000011101;
 30 : 1111111111110100000000010100;
 31 : 1111111111001100000000011001;
 32 : 0000000000010000000000011110;
 33 : 0000000000111000000000001101;
 34 : 1111111111110000000000010001;
 35 : 0000000000000100000000010000;
 36 : 0000000000100100000000010001;
 37 : 1111111110101100000000001101;
 38 : 1111111111111000000000001111;
 39 : 1111111111110100000000001101;
 3A : 0000000000000000000000001010;
 3B : 1111111111001100000000000111;
 3C : 0000000000101000000000001010;
 3D : 1111111111011100000000000111;
 3E : 0000000000001100000000000110;
 3F : 1111111111110000000000011001;
 40 : 0000000000101000000000001101;
 41 : 1111111111000111111111111110;
 42 : 1111111111111100000000010000;
 43 : 0000000000011000000000000001;
 44 : 0000000000111000000000010000;
 45 : 0000000000001100000000001010;
 46 : 0000000000100100000000000110;
 47 : 0000000000001100000000010000;
 48 : 1111111111101100000000010110;
 49 : 0000000000111100000000010011;
 4A : 0000000000001111111111110010;
 4B : 0000000000001100000000001001;
 4C : 0000000000100100000000001000;
 4D : 1111111111111011111111111111;
 4E : 0000000000101111111111110101;
 4F : 1111111111000100000000000101;
 50 : 0000000001011100000000000110;
 51 : 1111111111100000000000001101;
 52 : 1111111111111000000000000001;
 53 : 1111111111101100000000000111;
 54 : 0000000000000011111111110111;
 55 : 1111111111111111111111111111;
 56 : 0000000001011100000000001010;
 57 : 1111111111110111111111111100;
 58 : 1111111111110100000000010001;
 59 : 0000000000000000000000000010;
 5A : 1111111111111111111111111001;
 5B : 0000000000010000000000000011;
 5C : 1111111111011111111111110110;
 5D : 1111111111010100000000000010;
 5E : 0000000000000111111111110111;
 5F : 0000000000010011111111111001;
 60 : 1111111111101111111111110101;
 61 : 1111111111010111111111111001;
 62 : 0000000000001100000000000100;
 63 : 1111111111111000000000001011;
 64 : 0000000000100011111111111111;
 65 : 1111111111110100000000010010;
 66 : 0000000000101011111111111111;
 67 : 1111111111100100000000000100;
 68 : 1111111111011000000000000101;
 69 : 1111111111001100000000001101;
 6A : 1111111111111100000000000111;
 6B : 1111111111101100000000000001;
 6C : 1111111111110111111111111101;
 6D : 0000000000011000000000000001;
 6E : 0000000000010100000000000001;
 6F : 0000000000101111111111111101;
 70 : 1111111111111111111111111010;
 71 : 0000000000010100000000010011;
 72 : 1111111111101100000000011101;
 73 : 1111111110101111111111111001;
 74 : 1111111111010111111111111110;
 75 : 0000000001001011111111110110;
 76 : 1111111111011111111111111110;
 77 : 1111111110110100000000001100;
 78 : 1111111111111011111111111110;
 79 : 1111111110100000000000010000;
 7A : 1111111111111000000000010101;
 7B : 1111111111001111111111110111;
 7C : 0000000000100011111111111100;
 7D : 1111111111001000000000000001;
 7E : 0000000001000100000000001011;
 7F : 1111111111100000000000001110;
 80 : 0000000000010000000000000110;
 81 : 0000000000000000000000001100;
 82 : 0000000000100111111111110101;
 83 : 1111111111010100000000001000;
 84 : 0000000001001011111111111000;
 85 : 0000000001001100000000001011;
 86 : 0000000000001111111111111100;
 87 : 1111111111011111111111110001;
 88 : 1111111111110111111111110101;
 89 : 1111111111101000000000001101;
 8A : 1111111111111100000000010001;
 8B : 1111111111101000000000001011;
 8C : 0000000000101011111111110000;
 8D : 0000000000010000000000010000;
 8E : 1111111111101100000000000011;
 8F : 0000000000000000000000010000;
 90 : 1111111111111011111111111010;
 91 : 1111111111101111111111110001;
 92 : 0000000000000011111111111010;
 93 : 1111111111111011111111110101;
 94 : 0000000000011100000000000001;
 95 : 0000000000100111111111111000;
 96 : 0000000000011111111111111001;
 97 : 1111111110110000000000000101;
 98 : 0000000001000111111111110110;
 99 : 0000000000001111111111111101;
 9A : 0000000000000111111111110001;
 9B : 1111111111111011111111111111;
 9C : 1111111111111011111111110101;
 9D : 0000000000001011111111110011;
 9E : 0000000000010011111111101111;
 9F : 0000000000000000000000010000;
 A0 : 0000000000000100000000000001;
 A1 : 1111111111011011111111111110;
 A2 : 0000000001010111111111111111;
 A3 : 1111111111000111111111100101;
 A4 : 0000000001000000000000000011;
 A5 : 0000000000010100000000000000;
 A6 : 1111111111110111111111110111;
 A7 : 0000000000000100000000000001;
 A8 : 0000000000001111111111111010;
 A9 : 0000000000110000000000001001;
 AA : 1111111111011000000000000111;
 AB : 1111111111110100000000000111;
 AC : 0000000001010000000000001011;
 AD : 0000000000010000000000000100;
 AE : 0000000000001111111111110011;
 AF : 0000000000001000000000010000;
 B0 : 0000000000001111111111111110;
 B1 : 0000000000001100000000010011;
 B2 : 1111111111000011111111101000;
 B3 : 1111111110111100000000000101;
 B4 : 1111111111010000000000000111;
 B5 : 0000000000000000000000000101;
 B6 : 0000000000000000000000000111;
 B7 : 1111111111101100000000010011;
 B8 : 1111111111111000000000001000;
 B9 : 1111111111111111111111111101;
 BA : 0000000000110000000000000001;
 BB : 1111111111111111111111111100;
 BC : 1111111111110111111111111011;
 BD : 1111111111001111111111111001;
 BE : 1111111111100111111111111100;
 BF : 0000000000000011111111110011;
 C0 : 1111111111100111111111110001;
 C1 : 1111111111101000000000001010;
 C2 : 1111111110111000000000000010;
 C3 : 1111111111100000000000000100;
 C4 : 1111111111100100000000001000;
 C5 : 0000000000011000000000001011;
 C6 : 0000000000011011111111111010;
 C7 : 0000000000000111111111110101;
 C8 : 0000000001000000000000000101;
 C9 : 0000000000010100000000000000;
 CA : 0000000000110100000000000011;
 CB : 1111111111111100000000001001;
 CC : 1111111110101100000000000011;
 CD : 1111111111110011111111111101;
 CE : 1111111110101100000000000001;
 CF : 1111111111010011111111110001;
 D0 : 0000000001000100000000000110;
 D1 : 1111111111010111111111111100;
 D2 : 1111111111010111111111101111;
 D3 : 1111111111101000000000001110;
 D4 : 1111111111110011111111111110;
 D5 : 0000000001001100000000000010;
 D6 : 0000000000000000000000001001;
 D7 : 0000000000000011111111111000;
 D8 : 1111111111110111111111111100;
 D9 : 0000000000011000000000000100;
 DA : 1111111111110111111111101110;
 DB : 1111111111111100000000001110;
 DC : 0000000000100011111111110000;
 DD : 1111111111111111111111111100;
 DE : 1111111111110000000000000111;
 DF : 1111111111101000000000000011;
 E0 : 0000000000000000000000000100;
 E1 : 0000000000001011111111111110;
 E2 : 0000000000000111111111110100;
 E3 : 1111111111111100000000001000;
 E4 : 1111111111110111111111111100;
 E5 : 1111111111111000000000000100;
 E6 : 1111111111110011111111111101;
 E7 : 1111111111110011111111111011;
 E8 : 0000000000100000000000000111;
 E9 : 0000000000000100000000000100;
 EA : 0000000000011111111111101001;
 EB : 1111111111110000000000000011;
 EC : 1111111111110011111111111011;
 ED : 1111111110111011111111111010;
 EE : 0000000000100011111111111110;
 EF : 1111111111011100000000000110;
 F0 : 1111111111001100000000000110;
 F1 : 0000000000000011111111110101;
 F2 : 0000000000000111111111110101;
 F3 : 1111111110100000000000000111;
 F4 : 0000000000011100000000010010;
 F5 : 1111111110111011111111111000;
 F6 : 0000000000001000000000000111;
 F7 : 1111111111100100000000001000;
 F8 : 1111111111001111111111111011;
 F9 : 1111111111011011111111111101;
 FA : 1111111111100000000000000111;
 FB : 0000000000010111111111111000;
 FC : 1111111111100011111111111100;
 FD : 1111111111101000000000000100;
 FE : 1111111111011100000000000001;
 FF : 1111111111110100000000000010;
 100 : 1111111111010000000000000100;
 101 : 1111111111110111111111111100;
 102 : 0000000000010011111111111111;
 103 : 1111111111111000000000001001;
 104 : 0000000000010011111111111101;
 105 : 1111111111000111111111111110;
 106 : 1111111111111100000000010011;
 107 : 0000000000000100000000001011;
 108 : 0000000001000100000000000010;
 109 : 1111111111111100000000001101;
 10A : 0000000000001011111111111111;
 10B : 0000000000001011111111111010;
 10C : 0000000000000111111111111110;
 10D : 1111111111010100000000001101;
 10E : 0000000000100100000000000000;
 10F : 0000000000100100000000000111;
 110 : 1111111111110011111111110010;
 111 : 0000000000001011111111111001;
 112 : 1111111111011100000000010000;
 113 : 0000000000000100000000010000;
 114 : 1111111111111111111111111011;
 115 : 0000000000100000000000001000;
 116 : 0000000000010100000000000010;
 117 : 1111111111111100000000000001;
 118 : 1111111111100100000000000011;
 119 : 1111111111010011111111111101;
 11A : 1111111111110011111111111101;
 11B : 1111111111000000000000000010;
 11C : 1111111111000000000000000110;
 11D : 1111111111110011111111111111;
 11E : 0000000000010100000000000010;
 11F : 0000000000011111111111111001;
 120 : 1111111111100111111111111011;
 121 : 0000000000000011111111110110;
 122 : 0000000000000011111111110011;
 123 : 0000000000001111111111111010;
 124 : 1111111111101011111111111111;
 125 : 0000000001000011111111111101;
 126 : 1111111111001000000000000110;
 127 : 1111111110100000000000001100;
 128 : 0000000000000000000000001001;
 129 : 0000000000011000000000000111;
 12A : 0000000000000011111111111111;
 12B : 1111111111100000000000001111;
 12C : 1111111111010100000000000101;
 12D : 1111111111111011111111110111;
 12E : 0000000000100000000000000110;
 12F : 1111111110110100000000001001;
 130 : 0000000000001011111111111101;
 131 : 1111111111110100000000000100;
 132 : 1111111111101011111111111111;
 133 : 1111111111001000000000000101;
 134 : 1111111111101100000000000001;
 135 : 1111111111000000000000000011;
 136 : 0000000000001000000000001001;
 137 : 1111111111001000000000001001;
 138 : 1111111111110100000000011000;
 139 : 0000000000000100000000001010;
 13A : 0000000000000000000000000111;
 13B : 1111111111011111111111111000;
 13C : 0000000000010011111111111000;
 13D : 1111111111100100000000001110;
 13E : 1111111111011111111111110101;
 13F : 0000000000010111111111110011;
 140 : 0000000000011011111111111111;
 141 : 0000000000001011111111110101;
 142 : 0000000000011100000000001000;
 143 : 1111111111010111111111111000;
 144 : 1111111111001011111111111011;
 145 : 1111111111111111111111111000;
 146 : 0000000000001111111111111100;
 147 : 1111111111011000000000000001;
 148 : 0000000000101111111111101101;
 149 : 0000000000001100000000000101;
 14A : 0000000000000111111111111010;
 14B : 1111111111001100000000010000;
 14C : 0000000000010000000000000011;
 14D : 0000000000100100000000001110;
 14E : 0000000000001100000000000011;
 14F : 1111111111100000000000000101;
 150 : 1111111111011100000000000101;
 151 : 0000000000011000000000001001;
 152 : 1111111111110000000000001110;
 153 : 0000000000101011111111111010;
 154 : 1111111111100111111111111010;
 155 : 0000000001000111111111111111;
 156 : 1111111111110100000000010011;
 157 : 1111111111001000000000000011;
 158 : 1111111111111111111111111000;
 159 : 1111111111111111111111111001;
 15A : 1111111111100100000000000000;
 15B : 0000000000000011111111111011;
 15C : 1111111111010100000000000101;
 15D : 1111111111010100000000000001;
 15E : 0000000000000100000000000001;
 15F : 0000000000111000000000001000;
 160 : 0000000000100111111111111001;
 161 : 0000000000001011111111111111;
 162 : 0000000000011011111111110111;
 163 : 1111111111001011111111110010;
 164 : 0000000000111011111111111101;
 165 : 1111111111100100000000000011;
 166 : 1111111111001100000000000111;
 167 : 0000000000100000000000010101;
 168 : 0000000000011111111111111001;
 169 : 1111111111101011111111111100;
 16A : 1111111111110111111111110110;
 16B : 1111111110110011111111111111;
 16C : 1111111111000100000000001000;
 16D : 1111111111111111111111110110;
 16E : 1111111111010011111111111011;
 16F : 1111111111011011111111101111;
 170 : 1111111111001111111111110001;
 171 : 0000000000000000000000000001;
 172 : 1111111111100111111111111111;
 173 : 1111111111111011111111110111;
 174 : 1111111111010011111111111111;
 175 : 1111111111011100000000000110;
 176 : 1111111111111011111111110010;
 177 : 1111111111111111111111111111;
 178 : 1111111111110011111111111111;
 179 : 1111111111011100000000001000;
 17A : 1111111111101111111111111100;
 17B : 1111111110101000000000000011;
 17C : 1111111111011011111111101010;
 17D : 0000000000001000000000000001;
 17E : 1111111111111111111111111000;
 17F : 1111111111001011111111111001;
 180 : 0000000000011000000000000000;
 181 : 1111111111101011111111110011;
 182 : 0000000000011000000000000101;
 183 : 1111111111101111111111101001;
 184 : 0000000000111011111111111010;
 185 : 1111111111001000000000001000;
 186 : 0000000000001000000000000111;
 187 : 1111111111110000000000000010;
 188 : 0000000000001000000000000001;
 189 : 1111111111111000000000001000;
 18A : 0000000000010011111111111011;
 18B : 0000000000011000000000010000;
 18C : 1111111111101000000000010000;
 18D : 1111111111010011111111111101;
 18E : 1111111111001011111111110100;
 18F : 1111111111100100000000000000;
 190 : 1111111111100000000000001001;
 191 : 1111111111100000000000001100;
 192 : 1111111111110011111111111111;
 193 : 0000000000011111111111111010;
 194 : 1111111110111011111111111111;
 195 : 0000000000100100000000010110;
 196 : 0000000000001100000000000110;
 197 : 1111111111011111111111111011;
 198 : 0000000000111100000000000001;
 199 : 1111111111101111111111111101;
 19A : 1111111111111111111111111111;
 19B : 1111111111101000000000000001;
 19C : 1111111111110100000000010000;
 19D : 0000000000000111111111111111;
 19E : 0000000000000000000000000000;
 19F : 1111111111001111111111110010;
 1A0 : 1111111111110000000000000001;
 1A1 : 1111111111010011111111111001;
 1A2 : 1111111111110100000000001101;
 1A3 : 1111111111110011111111111011;
 1A4 : 1111111111110100000000000001;
 1A5 : 0000000000010100000000000011;
 1A6 : 0000000000000111111111110000;
 1A7 : 0000000000000100000000010011;
 1A8 : 1111111111110000000000010000;
 1A9 : 0000000000101000000000001111;
 1AA : 0000000001000100000000000110;
 1AB : 0000000000101100000000001001;
 1AC : 1111111111110100000000000110;
 1AD : 1111111110110100000000010000;
 1AE : 1111111111100011111111111010;
 1AF : 1111111111010000000000001000;
 1B0 : 1111111111101011111111111110;
 1B1 : 0000000000000111111111111110;
 1B2 : 0000000000001100000000001000;
 1B3 : 0000000000001000000000001010;
 1B4 : 1111111111100011111111110101;
 1B5 : 1111111111110100000000001000;
 1B6 : 1111111111010100000000010001;
 1B7 : 1111111111001100000000001100;
 1B8 : 0000000001010000000000000101;
 1B9 : 1111111111011000000000000001;
 1BA : 0000000000001111111111111110;
 1BB : 0000000000010100000000001111;
 1BC : 1111111111101011111111110110;
 1BD : 0000000000000100000000000011;
 1BE : 0000000000100100000000000100;
 1BF : 0000000000100100000000000011;
 1C0 : 0000000000101111111111110111;
 1C1 : 0000000000001011111111110111;
 1C2 : 1111111111010100000000001111;
 1C3 : 0000000000110011111111110111;
 1C4 : 1111111111111100000000000110;
 1C5 : 1111111111011100000000000110;
 1C6 : 0000000000101100000000000010;
 1C7 : 1111111111100000000000001000;
 1C8 : 0000000000000111111111110010;
 1C9 : 1111111111110111111111111110;
 1CA : 1111111111101000000000001010;
 1CB : 0000000000011000000000000010;
 1CC : 0000000000101011111111111100;
 1CD : 0000000000001011111111111001;
 1CE : 1111111111110111111111111011;
 1CF : 0000000000000011111111111001;
 1D0 : 0000000000000100000000001011;
 1D1 : 1111111111100000000000000011;
 1D2 : 1111111111110111111111111001;
 1D3 : 1111111111110011111111111111;
 1D4 : 0000000000001100000000000001;
 1D5 : 0000000000100111111111111100;
 1D6 : 0000000000101100000000001110;
 1D7 : 1111111111011100000000000000;
 1D8 : 0000000000001111111111111001;
 1D9 : 0000000001001100000000001000;
 1DA : 1111111111111100000000000011;
 1DB : 1111111111011000000000000010;
 1DC : 1111111111111011111111110001;
 1DD : 0000000000000111111111110111;
 1DE : 0000000000001000000000001010;
 1DF : 1111111111100111111111111010;
 1E0 : 1111111111001100000000001011;
 1E1 : 1111111111110100000000001101;
 1E2 : 1111111111100011111111111101;
 1E3 : 0000000000110111111111111111;
 1E4 : 0000000000000000000000000000;
 1E5 : 1111111111111011111111110110;
 1E6 : 0000000000000111111111111101;
 1E7 : 1111111111011011111111111010;
 1E8 : 1111111111001100000000000100;
 1E9 : 0000000000011100000000000010;
 1EA : 0000000000001100000000000011;
 1EB : 0000000000101100000000001111;
 1EC : 1111111111110111111111111010;
 1ED : 1111111111011000000000001010;
 1EE : 0000000000001100000000000011;
 1EF : 1111111111001111111111110101;
 1F0 : 1111111111101111111111111000;
 1F1 : 1111111111110011111111111011;
 1F2 : 1111111111110011111111110111;
 1F3 : 0000000001001111111111110111;
 1F4 : 0000000000010111111111110111;
 1F5 : 0000000000111011111111111100;
 1F6 : 1111111111110100000000001010;
 1F7 : 1111111111010100000000000111;
 1F8 : 1111111111011100000000000000;
 1F9 : 1111111111111100000000001010;
 1FA : 1111111111111000000000000000;
 1FB : 1111111111111000000000000110;
 1FC : 1111111111100011111111110111;
 1FD : 1111111111101000000000001001;
 1FE : 1111111111111000000000001000;
 1FF : 1111111111111000000000001000;
 200 : 0000000000101100000000000000;
 201 : 1111111111111011111111110111;
 202 : 1111111111111011111111110111;
 203 : 1111111111101011111111110110;
 204 : 1111111111100000000000001000;
 205 : 1111111111111011111111111001;
 206 : 1111111111111011111111111111;
 207 : 1111111111111111111111110101;
 208 : 1111111111011111111111111111;
 209 : 1111111111010111111111111000;
 20A : 1111111111110111111111110101;
 20B : 0000000000111000000000000011;
 20C : 0000000000010100000000001000;
 20D : 0000000001001100000000001000;
 20E : 1111111111110000000000001000;
 20F : 1111111111110000000000000100;
 210 : 1111111111101100000000000111;
 211 : 1111111111001100000000001010;
 212 : 0000000000001111111111111100;
 213 : 1111111111011011111111110101;
 214 : 1111111111110100000000000101;
 215 : 0000000000101111111111110000;
 216 : 0000000000001111111111111100;
 217 : 0000000000011111111111111101;
 218 : 1111111111001111111111111011;
 219 : 1111111111011000000000000101;
 21A : 0000000000000100000000000010;
 21B : 1111111111111000000000001001;
 21C : 0000000000000011111111111111;
 21D : 0000000000110100000000000000;
 21E : 1111111111100000000000000010;
 21F : 1111111111110111111111110010;
 220 : 1111111111001111111111110100;
 221 : 1111111111100100000000000101;
 222 : 0000000000001011111111110101;
 223 : 0000000000000100000000001000;
 224 : 1111111111111000000000001110;
 225 : 1111111111011011111111111101;
 226 : 1111111111111111111111111100;
 227 : 0000000001001111111111110111;
 228 : 0000000000001100000000000110;
 229 : 1111111111011111111111111111;
 22A : 0000000000101111111111110001;
 22B : 0000000000100100000000000011;
 22C : 0000000000001111111111111110;
 22D : 1111111111110000000000000000;
 22E : 1111111111110100000000000110;
 22F : 1111111111100011111111111100;
 230 : 0000000000000111111111110100;
 231 : 0000000000000000000000000110;
 232 : 1111111111110100000000000100;
 233 : 0000000000001000000000000110;
 234 : 0000000000101000000000000011;
 235 : 0000000000011011111111111101;
 236 : 1111111111101011111111110101;
 237 : 1111111111110100000000000001;
 238 : 0000000000000100000000001101;
 239 : 1111111111100011111111110111;
 23A : 0000000000101111111111111101;
 23B : 1111111111011111111111111001;
 23C : 1111111111111111111111111001;
 23D : 0000000000110000000000001000;
 23E : 1111111111010111111111110000;
 23F : 0000000000001000000000001000;
 240 : 0000000000101100000000001000;
 241 : 0000000000100111111111111100;
 242 : 0000000000100111111111111011;
 243 : 0000000000000111111111111100;
 244 : 1111111111101000000000001001;
 245 : 0000000000010111111111110000;
 246 : 0000000000001100000000000001;
 247 : 1111111111011011111111111110;
 248 : 0000000001010011111111111010;
 249 : 1111111111001111111111110011;
 24A : 1111111111010111111111101110;
 24B : 1111111111110111111111110111;
 24C : 1111111111100000000000001010;
 24D : 0000000000001011111111110101;
 24E : 0000000000001111111111110111;
 24F : 0000000000000100000000000001;
 250 : 1111111111101000000000000001;
 251 : 1111111111010011111111110111;
 252 : 1111111111100000000000000101;
 253 : 1111111110110111111111101111;
 254 : 1111111111110111111111111001;
 255 : 0000000000101111111111110110;
 256 : 0000000001000111111111111001;
 257 : 0000000000101011111111110000;
 258 : 1111111111110011111111101111;
 259 : 0000000000000111111111101100;
 25A : 0000000000000100000000001111;
 25B : 0000000000010111111111111100;
 25C : 1111111111110111111111111110;
 25D : 1111111111110000000000000100;
 25E : 1111111111110111111111110010;
 25F : 1111111111010000000000000110;
 260 : 1111111111110011111111111110;
 261 : 1111111111001100000000001101;
 262 : 0000000000000011111111111111;
 263 : 0000000000000100000000000000;
 264 : 1111111111110111111111101111;
 265 : 1111111111101011111111111110;
 266 : 1111111111111100000000000000;
 267 : 1111111111101100000000000010;
 268 : 0000000000111111111111111110;
 269 : 1111111111011100000000000100;
 26A : 0000000000001111111111111001;
 26B : 0000000000100111111111101001;
 26C : 1111111110111000000000000000;
 26D : 0000000000011100000000000101;
 26E : 1111111111110000000000000000;
 26F : 1111111111100011111111110011;
 270 : 1111111111100011111111110110;
 271 : 1111111111100111111111111111;
 272 : 1111111111001000000000001011;
 273 : 1111111111010000000000000010;
 274 : 1111111111101011111111101111;
 275 : 0000000000011011111111101111;
 276 : 0000000000010000000000000100;
 277 : 1111111111111011111111110111;
 278 : 0000000000001011111111111110;
 279 : 1111111111110011111111111101;
 27A : 0000000000001011111111111000;
 27B : 1111111111001011111111110111;
 27C : 0000000000111000000000000101;
 27D : 1111111111101100000000010110;
 27E : 0000000000011011111111111010;
 27F : 1111111111101000000000001100;
 280 : 0000000000011011111111111111;
 281 : 1111111111001000000000000110;
 282 : 1111111111111100000000000111;
 283 : 0000000000001011111111111110;
 284 : 1111111111011000000000010101;
 285 : 1111111110101011111111111100;
 286 : 1111111111101100000000000011;
 287 : 1111111111011111111111110111;
 288 : 1111111111110000000000000000;
 289 : 1111111111111100000000000000;
 28A : 1111111111111000000000001101;
 28B : 1111111111011111111111111001;
 28C : 1111111111010000000000000000;
 28D : 1111111111111000000000001000;
 28E : 1111111111100100000000000000;
 28F : 0000000000000011111111111110;
 290 : 1111111111001100000000001110;
 291 : 1111111111011000000000010000;
 292 : 1111111111010000000000000100;
 293 : 1111111111111100000000001001;
 294 : 1111111111000111111111110111;
 295 : 1111111110110000000000000000;
 296 : 1111111111110100000000001001;
 297 : 1111111111101000000000000011;
 298 : 0000000000011100000000000110;
 299 : 0000000000100011111111101010;
 29A : 1111111111001111111111111000;
 29B : 1111111111100111111111111100;
 29C : 0000000000111000000000000010;
 29D : 1111111111001000000000001101;
 29E : 0000000000011000000000001000;
 29F : 0000000000001000000000000000;
 2A0 : 0000000000100100000000000110;
 2A1 : 0000000000111011111111110111;
 2A2 : 0000000000000111111111111110;
 2A3 : 1111111111010111111111111110;
 2A4 : 1111111111010111111111111010;
 2A5 : 0000000000000000000000000100;
 2A6 : 1111111111100111111111111111;
 2A7 : 1111111111111100000000000110;
 2A8 : 1111111111111100000000000111;
 2A9 : 1111111111001011111111111100;
 2AA : 1111111111110111111111101100;
 2AB : 0000000001000100000000000000;
 2AC : 1111111111100100000000000101;
 2AD : 0000000000101000000000000101;
 2AE : 1111111111110011111111110001;
 2AF : 0000000000011011111111110110;
 2B0 : 1111111111011111111111111010;
 2B1 : 1111111111100011111111111010;
 2B2 : 0000000000001111111111111100;
 2B3 : 0000000000100111111111110001;
 2B4 : 0000000000010011111111111100;
 2B5 : 1111111111001111111111101111;
 2B6 : 0000000000000100000000000101;
 2B7 : 0000000000001111111111111010;
 2B8 : 0000000000101100000000010010;
 2B9 : 1111111111011011111111111110;
 2BA : 0000000000001100000000000011;
 2BB : 1111111111111100000000000111;
 2BC : 1111111111001000000000000100;
 2BD : 1111111111010100000000000111;
 2BE : 0000000000011111111111110111;
 2BF : 0000000000001000000000001010;
 2C0 : 0000000000011000000000000000;
 2C1 : 0000000000010100000000001100;
 2C2 : 1111111111011100000000001010;
 2C3 : 1111111111100111111111110001;
 2C4 : 0000000000010000000000000111;
 2C5 : 1111111111011100000000000111;
 2C6 : 0000000000000011111111111000;
 2C7 : 0000000000000111111111110101;
 2C8 : 1111111111110111111111100111;
 2C9 : 1111111111001011111111110110;
 2CA : 0000000000001011111111110110;
 2CB : 1111111111000011111111111100;
 2CC : 1111111111101111111111111110;
 2CD : 1111111111001011111111111010;
 2CE : 1111111111101000000000000000;
 2CF : 1111111111110111111111111011;
 2D0 : 0000000000001000000000000010;
 2D1 : 1111111110110111111111110110;
 2D2 : 0000000000100011111111111001;
 2D3 : 1111111111111000000000001000;
 2D4 : 1111111111010111111111111010;
 2D5 : 1111111111100011111111110000;
 2D6 : 0000000000000000000000000000;
 2D7 : 0000000000011011111111111000;
 2D8 : 0000000000000011111111110110;
 2D9 : 1111111110100011111111110011;
 2DA : 1111111111001011111111111001;
 2DB : 0000000001000000000000000010;
 2DC : 1111111111101000000000000000;
 2DD : 0000000000001100000000000101;
 2DE : 0000000000000000000000001100;
 2DF : 0000000000000000000000001001;
 2E0 : 1111111111100100000000000100;
 2E1 : 0000000000011100000000000110;
 2E2 : 0000000000010111111111111101;
 2E3 : 1111111111110000000000000000;
 2E4 : 1111111111000011111111111001;
 2E5 : 1111111111000011111111111101;
 2E6 : 1111111111110000000000000010;
 2E7 : 1111111111010000000000000010;
 2E8 : 1111111111100111111111111100;
 2E9 : 1111111111111111111111111110;
 2EA : 0000000000010111111111111101;
 2EB : 0000000000100011111111110111;
 2EC : 1111111111111100000000000100;
 2ED : 0000000000000111111111101111;
 2EE : 1111111111011111111111101111;
 2EF : 0000000000001000000000000110;
 2F0 : 1111111111110000000000001101;
 2F1 : 0000000000100111111111111000;
 2F2 : 0000000000100111111111111111;
 2F3 : 1111111111010111111111110010;
 2F4 : 0000000000000100000000000001;
 2F5 : 0000000000001000000000000101;
 2F6 : 0000000000001000000000000000;
 2F7 : 1111111111111111111111110010;
 2F8 : 0000000001000111111111111101;
 2F9 : 0000000000000111111111110100;
 2FA : 1111111111111111111111101100;
 2FB : 1111111111000100000000000001;
 2FC : 0000000000010000000000000010;
 2FD : 1111111111111011111111110110;
 2FE : 0000000000010000000000000000;
 2FF : 1111111111110100000000000011;
 300 : 1111111111010011111111111011;
 301 : 1111111111110111111111111101;
 302 : 1111111111011111111111111110;
 303 : 1111111111101011111111111011;
 304 : 1111111111100000000000000011;
 305 : 0000000000010100000000000111;
 306 : 1111111111100011111111111000;
 307 : 1111111111011000000000000010;
 308 : 1111111111001100000000000100;
 309 : 1111111111100111111111110111;
 30A : 0000000000001011111111111000;
 30B : 1111111110111000000000000111;
 30C : 0000000000011111111111101101;
 30D : 1111111110100011111111111000;
 30E : 0000000000000100000000001010;
 30F : 0000000000000000000000001010;
 310 : 1111111111001111111111111001;
 311 : 1111111111011111111111111001;
 312 : 0000000000100000000000000001;
 313 : 1111111110111000000000000101;
 314 : 1111111111110000000000000100;
 315 : 1111111111110011111111111100;
 316 : 0000000000011100000000010110;
 317 : 0000000000000111111111111011;
 318 : 0000000000100011111111111000;
 319 : 1111111111110000000000000100;
 31A : 1111111111110000000000000010;
 31B : 1111111111111011111111111011;
 31C : 1111111111110100000000000011;
 31D : 1111111111111111111111110111;
 31E : 0000000000000100000000001011;
 31F : 0000000000001000000000000001;
 320 : 0000000000000011111111111011;
 321 : 1111111111101011111111111100;
 322 : 1111111111110011111111111000;
 323 : 1111111111111100000000000011;
 324 : 0000000000100000000000001111;
 325 : 1111111111111111111111110001;
 326 : 1111111111110100000000010001;
 327 : 0000000000011011111111111011;
 328 : 1111111111110100000000000011;
 329 : 0000000000000000000000000111;
 32A : 0000000000000011111111110110;
 32B : 0000000001001111111111111101;
 32C : 1111111111110000000000000001;
 32D : 1111111111101011111111110001;
 32E : 1111111111010100000000010000;
 32F : 1111111111010100000000000011;
 330 : 0000000001000111111111111001;
 331 : 1111111111010000000000001110;
 332 : 1111111110101111111111111110;
 333 : 1111111111110000000000000010;
 334 : 1111111110101111111111111100;
 335 : 1111111111111111111111110110;
 336 : 0000000000110111111111111100;
 337 : 0000000000010111111111111111;
 338 : 0000000001000011111111111010;
 339 : 0000000000000100000000001010;
 33A : 0000000000011000000000000101;
 33B : 0000000000011011111111110100;
 33C : 1111111111100111111111110111;
 33D : 1111111111100011111111111011;
 33E : 1111111110111011111111111101;
 33F : 1111111111101011111111110101;
 340 : 1111111111100100000000001110;
 341 : 0000000000000000000000001100;
 342 : 1111111111100100000000000011;
 343 : 1111111111001100000000000110;
 344 : 1111111111110100000000000100;
 345 : 1111111111111100000000000011;
 346 : 0000000000110011111111111110;
 347 : 1111111111111100000000000010;
 348 : 1111111111111011111111110111;
 349 : 1111111111101111111111101100;
 34A : 0000000000000011111111111000;
 34B : 0000000000000011111111111010;
 34C : 1111111111010011111111111000;
 34D : 1111111110111111111111111010;
 34E : 1111111111000000000000010111;
 34F : 0000000000001111111111101100;
 350 : 0000000000001100000000000001;
 351 : 0000000000001011111111101111;
 352 : 0000000000001100000000001100;
 353 : 0000000000010011111111111011;
 354 : 0000000001010011111111110100;
 355 : 1111111111110111111111111000;
 356 : 1111111111011011111111111000;
 357 : 0000000000110011111111110110;
 358 : 0000000000001100000000000101;
 359 : 0000000000000111111111111110;
 35A : 1111111111110100000000001000;
 35B : 0000000000010111111111111111;
 35C : 0000000001000011111111111100;
 35D : 1111111111000100000000011010;
 35E : 0000000001010100000000000000;
 35F : 1111111111011000000000000001;
 360 : 0000000000000111111111111110;
 361 : 0000000000000011111111101111;
 362 : 0000000000010000000000010000;
 363 : 0000000000001000000000001100;
 364 : 1111111111111000000000001010;
 365 : 1111111111111000000000000000;
 366 : 0000000000000100000000001110;
 367 : 0000000000001100000000000010;
 368 : 0000000001000100000000001001;
 369 : 1111111110110011111111111010;
 36A : 0000000000011100000000000110;
 36B : 0000000000100100000000000111;
 36C : 0000000000011111111111111110;
 36D : 1111111111111000000000001010;
 36E : 0000000000000000000000000101;
 36F : 1111111111101100000000001110;
 370 : 1111111111111000000000000101;
 371 : 0000000000000011111111101111;
 372 : 1111111111101111111111111100;
 373 : 0000000000010011111111101111;
 374 : 0000000000101000000000001111;
 375 : 1111111111101011111111110100;
 376 : 1111111111111111111111101110;
 377 : 1111111111101011111111110010;
 378 : 1111111111110100000000001010;
 379 : 1111111111011100000000001110;
 37A : 0000000000001100000000000011;
 37B : 0000000001001111111111110100;
 37C : 0000000001001000000000000111;
 37D : 1111111111010111111111110111;
 37E : 0000000000100100000000001010;
 37F : 0000000000000011111111110011;
 380 : 0000000000010011111111111001;
 381 : 1111111111100011111111110001;
 382 : 0000000001000111111111110100;
 383 : 1111111111001011111111111110;
 384 : 0000000000100000000000000011;
 385 : 1111111111001100000000001000;
 386 : 1111111111111011111111101010;
 387 : 1111111110100011111111101111;
 388 : 1111111111111000000000000001;
 389 : 1111111110110111111111110011;
 38A : 1111111111011100000000000001;
 38B : 0000000001001000000000001001;
 38C : 1111111111010100000000000001;
 38D : 1111111110101100000000000110;
 38E : 1111111111101111111111100010;
 38F : 0000000000010111111111101100;
 390 : 1111111111111100000000000101;
 391 : 0000000000101100000000000010;
 392 : 0000000000010111111111111110;
 393 : 0000000000011011111111111110;
 394 : 1111111111110100000000000010;
 395 : 1111111111101111111111111110;
 396 : 1111111111111111111111111000;
 397 : 1111111111001111111111110010;
 398 : 1111111111011011111111111010;
 399 : 1111111111100111111111111011;
 39A : 0000000000101000000000000000;
 39B : 1111111111110111111111101101;
 39C : 0000000000100000000000000000;
 39D : 1111111111111011111111110100;
 39E : 0000000000001111111111111011;
 39F : 1111111111010100000000000110;
 3A0 : 1111111111101100000000001010;
 3A1 : 0000000000010000000000000110;
 3A2 : 0000000000000100000000001000;
 3A3 : 1111111111010111111111111101;
 3A4 : 1111111111011100000000001001;
 3A5 : 0000000000010011111111111100;
 3A6 : 1111111111111100000000000110;
 3A7 : 0000000000000011111111111101;
 3A8 : 1111111111110111111111101110;
 3A9 : 1111111111110100000000000011;
 3AA : 0000000001011111111111110101;
 3AB : 1111111111111100000000000000;
 3AC : 0000000000000000000000001000;
 3AD : 1111111111101111111111111000;
 3AE : 1111111111111011111111111110;
 3AF : 1111111111100011111111110010;
 3B0 : 0000000001011111111111111001;
 3B1 : 1111111111000111111111111010;
 3B2 : 0000000000101100000000001010;
 3B3 : 1111111111111000000000000000;
 3B4 : 0000000000100111111111110111;
 3B5 : 0000000000001111111111110110;
 3B6 : 0000000000001100000000001101;
 3B7 : 0000000000111111111111101100;
 3B8 : 1111111111101111111111101001;
 3B9 : 0000000000001111111111101111;
 3BA : 0000000000100111111111111001;
 3BB : 0000000000001111111111110101;
 3BC : 0000000000111011111111101111;
 3BD : 0000000000011011111111111110;
 3BE : 1111111111111111111111101111;
 3BF : 1111111111000100000000000001;
 3C0 : 0000000000101011111111110010;
 3C1 : 1111111111110011111111100110;
 3C2 : 0000000000001111111111111001;
 3C3 : 1111111111011111111111111000;
 3C4 : 0000000000101011111111110101;
 3C5 : 1111111111001111111111111000;
 3C6 : 0000000000000011111111110101;
 3C7 : 1111111111110111111111110010;
 3C8 : 1111111111111011111111110000;
 3C9 : 1111111110101111111111110010;
 3CA : 0000000000100111111111101110;
 3CB : 0000000000000111111111101111;
 3CC : 1111111111110011111111101110;
 3CD : 0000000000111011111111110010;
 3CE : 0000000000010011111111100001;
 3CF : 1111111111001111111111100110;
 3D0 : 1111111111110111111111101011;
 3D1 : 0000000000100111111111100010;
 3D2 : 0000000000110011111111010101;
 3D3 : 0000000000101011111111000011;
 3D4 : 0000000001101111111110011110;
 3D5 : 0000000101111011111001100100;
 3D6 : 1111111100010000000011001110;
 3D7 : 1111111110011100000001001000;
 3D8 : 1111111111110000000000101001;
 3D9 : 1111111111101100000000100000;
 3DA : 1111111110111000000000011100;
 3DB : 1111111111001000000000010011;
 3DC : 1111111111110000000000011101;
 3DD : 1111111111010100000000001001;
 3DE : 0000000000001000000000010110;
 3DF : 1111111111111000000000001001;
 3E0 : 1111111111100100000000011110;
 3E1 : 1111111110111011111111111100;
 3E2 : 1111111111011011111111110110;
 3E3 : 0000000000010000000000000010;
 3E4 : 0000000000010100000000010101;
 3E5 : 1111111111101011111111110111;
 3E6 : 0000000001000000000000000101;
 3E7 : 1111111110111100000000001101;
 3E8 : 1111111110110011111111111011;
 3E9 : 1111111111010000000000000101;
 3EA : 0000000001001000000000000111;
 3EB : 0000000000100100000000001101;
 3EC : 1111111111111000000000000101;
 3ED : 1111111111011111111111110001;
 3EE : 0000000000000111111111111001;
 3EF : 0000000000101011111111110111;
 3F0 : 1111111111100111111111111011;
 3F1 : 0000000001000000000000001110;
 3F2 : 1111111111000100000000000010;
 3F3 : 1111111111000100000000001000;
 3F4 : 0000000000010000000000000001;
 3F5 : 1111111111000100000000000110;
 3F6 : 0000000000010000000000001001;
 3F7 : 1111111111110100000000010001;
 3F8 : 0000000001001011111111110011;
 3F9 : 1111111111100011111111101110;
 3FA : 0000000000010100000000000001;
 3FB : 0000000000010000000000001000;
 3FC : 0000000000101111111111111010;
 3FD : 0000000000101011111111101100;
 3FE : 1111111111101100000000000101;
 3FF : 0000000001000100000000001011;
END;
