WIDTH=28;
DEPTH=1024;
ADDRESS_RADIX=HEX;
DATA_RADIX=BIN;

CONTENT
BEGIN
 00 : 0000000000001100000000000000;
 01 : 1111111111011000000000001001;
 02 : 1111111111110111111111111011;
 03 : 1111111111100011111111111001;
 04 : 0000000000001111111111111001;
 05 : 1111111111100100000000000011;
 06 : 1111111111100100000000000000;
 07 : 0000000000011000000000001000;
 08 : 1111111111111100000000000101;
 09 : 0000000000011111111111110111;
 0A : 0000000000001100000000000011;
 0B : 1111111111100111111111110101;
 0C : 1111111111011000000000000100;
 0D : 0000000000100111111111111001;
 0E : 0000000000110100000000001110;
 0F : 1111111111101111111111110100;
 10 : 0000000000010100000000000111;
 11 : 1111111111100011111111111000;
 12 : 0000000000110000000000010010;
 13 : 0000000000001111111111110110;
 14 : 0000000000000011111111111111;
 15 : 0000000000111100000000000110;
 16 : 1111111111010100000000000110;
 17 : 0000000000010011111111111111;
 18 : 0000000000110111111111111101;
 19 : 1111111111001100000000010001;
 1A : 0000000000001000000000001000;
 1B : 0000000000000100000000000011;
 1C : 1111111111111011111111111010;
 1D : 0000000000000100000000010110;
 1E : 1111111111101100000000001011;
 1F : 1111111110100000000000000001;
 20 : 0000000000011111111111110101;
 21 : 1111111111001000000000011000;
 22 : 0000000000010011111111111110;
 23 : 1111111111110000000000010001;
 24 : 1111111111001000000000000111;
 25 : 0000000000001000000000011110;
 26 : 1111111110100000000000010100;
 27 : 1111111111111100000000011110;
 28 : 1111111110000100000000100111;
 29 : 1111111110100100000001011000;
 2A : 1111111011011000000011000001;
 2B : 0000000111101111111001010111;
 2C : 0000000001100111111110100010;
 2D : 0000000000100111111111001010;
 2E : 0000000000110111111111011111;
 2F : 0000000000100011111111100001;
 30 : 0000000001001111111111100010;
 31 : 0000000000010111111111101011;
 32 : 0000000000010011111111101111;
 33 : 0000000000011011111111111101;
 34 : 0000000000101111111111110000;
 35 : 0000000000100011111111110111;
 36 : 0000000000111111111111111000;
 37 : 0000000000111111111111101101;
 38 : 0000000000100111111111110000;
 39 : 0000000000001011111111110111;
 3A : 1111111111100011111111110011;
 3B : 0000000000011111111111111010;
 3C : 0000000000000100000000000011;
 3D : 1111111111101111111111111110;
 3E : 0000000000000011111111111110;
 3F : 0000000000000111111111110011;
 40 : 1111111111101011111111111001;
 41 : 0000000000000011111111110101;
 42 : 1111111111001111111111110001;
 43 : 0000000001011011111111101110;
 44 : 0000000000100011111111101100;
 45 : 0000000000100111111111101101;
 46 : 0000000000000111111111110101;
 47 : 1111111111010011111111111001;
 48 : 1111111111110111111111110111;
 49 : 0000000000010011111111111100;
 4A : 0000000000010100000000000000;
 4B : 1111111111101111111111111010;
 4C : 0000000000000100000000000110;
 4D : 1111111111001011111111110111;
 4E : 1111111111111111111111101011;
 4F : 0000000000100111111111110010;
 50 : 1111111111111100000000000000;
 51 : 1111111111111000000000001000;
 52 : 0000000000101011111111110111;
 53 : 1111111111110111111111111000;
 54 : 1111111111111111111111111101;
 55 : 0000000000100111111111110111;
 56 : 1111111111101011111111101110;
 57 : 1111111111011011111111111101;
 58 : 0000000000111011111111111111;
 59 : 1111111111110111111111111100;
 5A : 0000000001000111111111101011;
 5B : 0000000000011011111111110110;
 5C : 1111111111000000000000000000;
 5D : 0000000000010111111111101001;
 5E : 0000000000000111111111110000;
 5F : 0000000000001011111111111001;
 60 : 0000000000000011111111101111;
 61 : 0000000000010011111111111111;
 62 : 1111111111100011111111110101;
 63 : 1111111111110011111111101100;
 64 : 0000000000100011111111110100;
 65 : 0000000000100011111111100011;
 66 : 1111111111110000000000010011;
 67 : 1111111111110100000000000010;
 68 : 1111111111111111111111111101;
 69 : 0000000000110011111111110110;
 6A : 0000000001010011111111111110;
 6B : 0000000000001111111111111011;
 6C : 1111111111110011111111111000;
 6D : 1111111111000011111111111101;
 6E : 0000000000011000000000001101;
 6F : 1111111111111011111111110111;
 70 : 1111111111101111111111111010;
 71 : 0000000000000111111111111000;
 72 : 1111111111110011111111110101;
 73 : 0000000000000111111111110100;
 74 : 0000000000010111111111111011;
 75 : 1111111111110011111111110111;
 76 : 1111111111001011111111111101;
 77 : 1111111111100011111111101110;
 78 : 1111111111010111111111111011;
 79 : 0000000000010011111111111101;
 7A : 1111111111100100000000001001;
 7B : 0000000000110000000000001001;
 7C : 0000000000000111111111111101;
 7D : 1111111111100011111111111001;
 7E : 0000000000001100000000000000;
 7F : 1111111111110011111111111001;
 80 : 0000000000001000000000001001;
 81 : 1111111111110011111111110101;
 82 : 0000000000011011111111111101;
 83 : 0000000000001011111111110110;
 84 : 1111111111001000000000000110;
 85 : 1111111111101100000000000011;
 86 : 0000000000011000000000000111;
 87 : 0000000000001100000000000110;
 88 : 1111111111100011111111111000;
 89 : 1111111111110111111111110111;
 8A : 1111111111110011111111111100;
 8B : 1111111111101000000000000110;
 8C : 0000000000011011111111111110;
 8D : 1111111111100100000000010001;
 8E : 0000000000100100000000000011;
 8F : 1111111111101111111111111110;
 90 : 0000000000010011111111111001;
 91 : 1111111111100000000000000111;
 92 : 1111111111111100000000000001;
 93 : 1111111111101111111111101011;
 94 : 0000000000010111111111111101;
 95 : 0000000000001011111111111101;
 96 : 0000000000101000000000000010;
 97 : 0000000000011100000000001111;
 98 : 0000000000011011111111101011;
 99 : 0000000000000000000000000001;
 9A : 1111111111111011111111110110;
 9B : 0000000000001000000000001001;
 9C : 0000000000100100000000000001;
 9D : 0000000000000111111111111101;
 9E : 0000000000000011111111110100;
 9F : 0000000000000100000000010000;
 A0 : 0000000000110111111111111100;
 A1 : 0000000000000000000000000001;
 A2 : 0000000001000100000000000100;
 A3 : 0000000000001000000000010111;
 A4 : 1111111111110011111111111111;
 A5 : 1111111111101011111111111101;
 A6 : 1111111111001111111111111101;
 A7 : 1111111111110111111111110100;
 A8 : 0000000001000011111111111001;
 A9 : 1111111111111111111111111111;
 AA : 1111111111011100000000000100;
 AB : 1111111111110100000000000110;
 AC : 1111111111111100000000001010;
 AD : 0000000000001100000000001101;
 AE : 0000000000110011111111111010;
 AF : 0000000000111011111111111110;
 B0 : 0000000000010000000000001001;
 B1 : 0000000000111111111111111110;
 B2 : 0000000000011000000000001001;
 B3 : 1111111111110111111111111100;
 B4 : 0000000000100000000000010000;
 B5 : 0000000000011011111111111000;
 B6 : 0000000000100111111111101010;
 B7 : 1111111111001011111111111110;
 B8 : 0000000000101111111111110111;
 B9 : 0000000000010111111111111110;
 BA : 1111111111011111111111111001;
 BB : 0000000000000000000000000000;
 BC : 1111111111111111111111111101;
 BD : 0000000000010000000000001000;
 BE : 0000000000011100000000000011;
 BF : 1111111111001011111111101010;
 C0 : 0000000000001011111111111011;
 C1 : 1111111111101111111111110101;
 C2 : 0000000000101000000000010000;
 C3 : 1111111111110011111111110111;
 C4 : 0000000000011100000000000000;
 C5 : 0000000000100011111111110101;
 C6 : 1111111110101111111111111100;
 C7 : 1111111111100011111111110011;
 C8 : 0000000000000011111111111011;
 C9 : 1111111110101111111111110100;
 CA : 1111111111011100000000000100;
 CB : 1111111111010100000000000011;
 CC : 1111111111101011111111111011;
 CD : 0000000000110000000000000001;
 CE : 1111111111110000000000000110;
 CF : 0000000000010111111111110111;
 D0 : 0000000000011111111111111111;
 D1 : 0000000000000011111111111010;
 D2 : 1111111111101100000000000010;
 D3 : 1111111111110111111111111001;
 D4 : 1111111111100011111111111101;
 D5 : 0000000000000100000000001001;
 D6 : 1111111110100100000000001101;
 D7 : 0000000000010011111111111000;
 D8 : 0000000000001011111111100101;
 D9 : 0000000000001011111111101111;
 DA : 1111111111101100000000000100;
 DB : 1111111110111011111111111011;
 DC : 1111111111100011111111110110;
 DD : 1111111111100100000000000010;
 DE : 1111111111100111111111110010;
 DF : 0000000000110011111111111011;
 E0 : 0000000001000100000000001001;
 E1 : 1111111111100000000000000000;
 E2 : 0000000000100000000000000001;
 E3 : 1111111111111111111111101101;
 E4 : 1111111111011011111111111101;
 E5 : 1111111111101111111111101111;
 E6 : 1111111111110011111111110000;
 E7 : 1111111111100000000000001011;
 E8 : 0000000000101011111111111110;
 E9 : 0000000000000100000000000001;
 EA : 0000000000010100000000000110;
 EB : 1111111111011011111111111101;
 EC : 0000000000001011111111110011;
 ED : 0000000000001011111111111011;
 EE : 0000000000001111111111110110;
 EF : 1111111111101011111111101000;
 F0 : 0000000000110100000000001100;
 F1 : 1111111111111011111111110110;
 F2 : 0000000000111000000000000001;
 F3 : 1111111111110100000000000011;
 F4 : 0000000000000111111111111010;
 F5 : 1111111111001111111111111010;
 F6 : 0000000000000111111111111011;
 F7 : 1111111111011000000000000010;
 F8 : 1111111111110100000000000011;
 F9 : 0000000000000011111111110011;
 FA : 1111111111111011111111111011;
 FB : 0000000000000111111111110011;
 FC : 1111111111101011111111111100;
 FD : 1111111111000011111111110010;
 FE : 0000000000100011111111111111;
 FF : 0000000001010000000000000001;
 100 : 0000000001010111111111110100;
 101 : 0000000000001100000000010111;
 102 : 1111111111010011111111111100;
 103 : 0000000000110100000000001110;
 104 : 1111111111011111111111110111;
 105 : 0000000000101111111111110101;
 106 : 0000000000100011111111110000;
 107 : 1111111111100100000000001000;
 108 : 0000000000000000000000001101;
 109 : 1111111110111000000000001010;
 10A : 1111111111010011111111111110;
 10B : 1111111111001111111111110000;
 10C : 1111111111100011111111110011;
 10D : 1111111111110011111111110111;
 10E : 1111111111110011111111111010;
 10F : 1111111111010100000000000101;
 110 : 0000000000010111111111111110;
 111 : 0000000000100000000000000011;
 112 : 1111111110111011111111111100;
 113 : 1111111111011011111111111010;
 114 : 0000000001001100000000000101;
 115 : 0000000000010000000000001100;
 116 : 1111111111011100000000001011;
 117 : 0000000000000000000000001011;
 118 : 1111111111110011111111111001;
 119 : 1111111111011011111111111111;
 11A : 0000000000101111111111111000;
 11B : 0000000000000111111111111001;
 11C : 0000000000110000000000010000;
 11D : 1111111111100000000000000110;
 11E : 0000000001100000000000001010;
 11F : 0000000000000000000000000100;
 120 : 1111111111011011111111111100;
 121 : 1111111111010011111111111011;
 122 : 1111111111110011111111111100;
 123 : 1111111111110000000000000000;
 124 : 0000000000010100000000001111;
 125 : 0000000000000111111111111111;
 126 : 0000000000100000000000000111;
 127 : 1111111111111011111111110101;
 128 : 1111111111110000000000000101;
 129 : 1111111111110011111111111101;
 12A : 0000000000001011111111110010;
 12B : 0000000000001000000000011101;
 12C : 1111111111101000000000001000;
 12D : 0000000000011100000000000100;
 12E : 1111111111110111111111111010;
 12F : 1111111111101000000000001100;
 130 : 1111111111001100000000001111;
 131 : 1111111111001011111111110110;
 132 : 0000000001010011111111111100;
 133 : 0000000000010111111111110100;
 134 : 1111111111100011111111110010;
 135 : 1111111111010111111111111110;
 136 : 0000000000010100000000001011;
 137 : 0000000000100000000000000000;
 138 : 1111111111011111111111110111;
 139 : 1111111111111111111111110101;
 13A : 1111111111110111111111110111;
 13B : 0000000000001011111111110101;
 13C : 0000000000001111111111110000;
 13D : 1111111111001111111111111111;
 13E : 0000000000100111111111110010;
 13F : 0000000000101000000000001001;
 140 : 0000000000110011111111101011;
 141 : 1111111111010011111111110110;
 142 : 1111111111101011111111101111;
 143 : 0000000000100000000000000001;
 144 : 1111111111111011111111101011;
 145 : 1111111111110000000000000111;
 146 : 0000000001101000000000001000;
 147 : 0000000000000000000000000111;
 148 : 1111111111001000000000000010;
 149 : 0000000000011100000000001001;
 14A : 1111111111100000000000000111;
 14B : 0000000001011100000000001000;
 14C : 1111111111110000000000010001;
 14D : 1111111111110011111111111011;
 14E : 1111111111110000000000001000;
 14F : 1111111111110011111111110100;
 150 : 1111111111101111111111111101;
 151 : 1111111111100000000000000011;
 152 : 0000000000011000000000001001;
 153 : 0000000000000100000000000001;
 154 : 1111111111101011111111111110;
 155 : 0000000000000111111111110110;
 156 : 0000000000010100000000000000;
 157 : 0000000001010100000000000011;
 158 : 1111111111011100000000000001;
 159 : 0000000000001000000000000000;
 15A : 0000000001100000000000000000;
 15B : 1111111111101111111111111011;
 15C : 1111111110110000000000000111;
 15D : 0000000000001011111111110011;
 15E : 1111111111010000000000000000;
 15F : 1111111111010100000000000010;
 160 : 1111111111110111111111111011;
 161 : 0000000000010011111111111110;
 162 : 1111111111111011111111111100;
 163 : 0000000000100100000000000111;
 164 : 1111111111010000000000000101;
 165 : 0000000000100111111111101111;
 166 : 0000000000001100000000000000;
 167 : 0000000000111011111111111001;
 168 : 1111111111111000000000000011;
 169 : 0000000000000011111111110001;
 16A : 0000000000100011111111110111;
 16B : 0000000000011011111111111001;
 16C : 0000000000110000000000000000;
 16D : 1111111111001100000000001101;
 16E : 0000000000100111111111111101;
 16F : 1111111111001111111111111011;
 170 : 0000000000110011111111111011;
 171 : 1111111110111011111111110111;
 172 : 0000000000000000000000000101;
 173 : 1111111111101111111111110100;
 174 : 0000000000001111111111111100;
 175 : 1111111111011111111111110111;
 176 : 0000000000001100000000000000;
 177 : 1111111111111011111111110011;
 178 : 1111111110111100000000000111;
 179 : 0000000000100011111111101110;
 17A : 1111111111001100000000010000;
 17B : 0000000000001111111111111100;
 17C : 1111111111110011111111111111;
 17D : 0000000000101111111111110111;
 17E : 0000000000001011111111111011;
 17F : 1111111111100111111111111010;
 180 : 0000000000110000000000000110;
 181 : 0000000000110000000000000011;
 182 : 1111111111001011111111111101;
 183 : 1111111111110000000000000100;
 184 : 1111111111111100000000010100;
 185 : 0000000000010000000000001000;
 186 : 1111111111111100000000001011;
 187 : 1111111111111111111111110111;
 188 : 0000000000000011111111111110;
 189 : 0000000000110000000000001101;
 18A : 0000000000001100000000001010;
 18B : 1111111111100000000000001011;
 18C : 1111111111000111111111111110;
 18D : 1111111111010100000000001011;
 18E : 0000000000001100000000000011;
 18F : 0000000000111011111111111011;
 190 : 0000000000110111111111111110;
 191 : 1111111111100000000000000101;
 192 : 0000000000101011111111111000;
 193 : 1111111110011000000000010001;
 194 : 1111111111101100000000001011;
 195 : 1111111111111100000000000110;
 196 : 0000000000110011111111111110;
 197 : 0000000000001000000000000010;
 198 : 0000000000010011111111111001;
 199 : 0000000000000011111111111011;
 19A : 1111111111110000000000001111;
 19B : 1111111110111000000000001100;
 19C : 0000000000110111111111101110;
 19D : 0000000000000111111111111101;
 19E : 0000000000100100000000001000;
 19F : 0000000000000100000000010001;
 1A0 : 0000000000000100000000000011;
 1A1 : 1111111111110011111111111110;
 1A2 : 0000000000001011111111111011;
 1A3 : 1111111111111011111111111011;
 1A4 : 0000000000110111111111111101;
 1A5 : 0000000000001011111111111101;
 1A6 : 1111111111001111111111111100;
 1A7 : 0000000000000111111111110100;
 1A8 : 1111111111111100000000000011;
 1A9 : 0000000000110011111111110011;
 1AA : 0000000000000011111111110011;
 1AB : 0000000000100000000000001001;
 1AC : 0000000000001011111111111110;
 1AD : 1111111111101011111111110101;
 1AE : 1111111111111011111111111100;
 1AF : 0000000000001000000000010010;
 1B0 : 1111111111011000000000010000;
 1B1 : 0000000000100011111111111111;
 1B2 : 0000000000011100000000000000;
 1B3 : 0000000000110111111111110101;
 1B4 : 0000000001100000000000000100;
 1B5 : 1111111111011100000000000001;
 1B6 : 0000000000000111111111111011;
 1B7 : 0000000000011011111111111011;
 1B8 : 0000000000110111111111101111;
 1B9 : 0000000000000000000000000110;
 1BA : 0000000000010000000000000110;
 1BB : 1111111111001111111111111011;
 1BC : 1111111111011000000000010111;
 1BD : 0000000000110011111111110101;
 1BE : 0000000000010111111111110110;
 1BF : 0000000000010000000000000001;
 1C0 : 1111111111111100000000001110;
 1C1 : 0000000000010011111111110110;
 1C2 : 1111111111110100000000001111;
 1C3 : 1111111111111000000000001000;
 1C4 : 1111111111000100000000000001;
 1C5 : 1111111111011011111111111110;
 1C6 : 1111111110110011111111110111;
 1C7 : 1111111111111111111111111101;
 1C8 : 0000000000000011111111111000;
 1C9 : 0000000001001011111111110110;
 1CA : 0000000000111100000000000110;
 1CB : 0000000000010111111111111010;
 1CC : 0000000000010111111111111011;
 1CD : 0000000001001000000000000011;
 1CE : 0000000000010100000000010011;
 1CF : 0000000000001000000000010100;
 1D0 : 0000000000110100000000000000;
 1D1 : 0000000001000011111111111011;
 1D2 : 0000000000111100000000000001;
 1D3 : 0000000000010100000000001101;
 1D4 : 1111111111110100000000000010;
 1D5 : 0000000000001011111111111110;
 1D6 : 0000000000010100000000000001;
 1D7 : 0000000001001111111111110111;
 1D8 : 1111111111101000000000001010;
 1D9 : 1111111111000011111111111000;
 1DA : 1111111111011000000000001011;
 1DB : 1111111111110100000000000101;
 1DC : 1111111111101111111111111000;
 1DD : 0000000000000011111111111100;
 1DE : 0000000000010100000000001000;
 1DF : 0000000000010000000000000111;
 1E0 : 1111111111000111111111111110;
 1E1 : 0000000000001100000000001111;
 1E2 : 0000000000101011111111111100;
 1E3 : 1111111111110011111111110111;
 1E4 : 1111111111011000000000000001;
 1E5 : 0000000000100100000000000000;
 1E6 : 1111111111100000000000001010;
 1E7 : 1111111111111000000000000101;
 1E8 : 1111111111000100000000001110;
 1E9 : 0000000000000011111111110111;
 1EA : 0000000000101011111111111111;
 1EB : 0000000001011000000000000010;
 1EC : 1111111111110100000000000000;
 1ED : 0000000000110000000000000010;
 1EE : 0000000000011011111111111110;
 1EF : 0000000000111011111111110010;
 1F0 : 1111111111100111111111101111;
 1F1 : 0000000000010000000000001100;
 1F2 : 0000000000011100000000000000;
 1F3 : 0000000000000011111111110110;
 1F4 : 1111111111000111111111111001;
 1F5 : 0000000001000000000000000111;
 1F6 : 0000000000000100000000000100;
 1F7 : 0000000000100011111111111011;
 1F8 : 0000000000101011111111111101;
 1F9 : 0000000000010000000000000101;
 1FA : 0000000000000111111111111111;
 1FB : 0000000000010111111111111110;
 1FC : 1111111111111011111111111011;
 1FD : 1111111111000000000000000011;
 1FE : 1111111111100000000000000110;
 1FF : 1111111111010100000000000000;
 200 : 1111111111110100000000000000;
 201 : 1111111111010111111111111111;
 202 : 1111111111100011111111111001;
 203 : 1111111111000011111111111100;
 204 : 1111111111111000000000000100;
 205 : 0000000000010100000000000001;
 206 : 0000000000000100000000000000;
 207 : 0000000000010011111111111010;
 208 : 0000000000101000000000000010;
 209 : 0000000000100000000000000100;
 20A : 0000000000000111111111111011;
 20B : 0000000001000011111111111000;
 20C : 1111111111000100000000000110;
 20D : 0000000000000000000000001001;
 20E : 0000000000011111111111111111;
 20F : 0000000000010011111111110011;
 210 : 1111111111100100000000010000;
 211 : 0000000000111000000000001101;
 212 : 0000000000011000000000000001;
 213 : 0000000000110011111111111101;
 214 : 1111111111110111111111111111;
 215 : 0000000001011011111111111101;
 216 : 0000000000101000000000000000;
 217 : 0000000000000000000000001000;
 218 : 1111111111000111111111110001;
 219 : 1111111111111011111111111010;
 21A : 1111111111100011111111110101;
 21B : 0000000000100111111111111111;
 21C : 1111111111011011111111111110;
 21D : 1111111111110000000000001000;
 21E : 0000000000101000000000000011;
 21F : 0000000000001111111111110000;
 220 : 1111111111000100000000000001;
 221 : 0000000000010011111111111000;
 222 : 0000000000010111111111110111;
 223 : 0000000000000000000000000011;
 224 : 1111111111101100000000000111;
 225 : 1111111111110111111111111010;
 226 : 1111111111011011111111110100;
 227 : 1111111111000000000000000111;
 228 : 1111111111101011111111110101;
 229 : 0000000001001100000000001000;
 22A : 0000000000010111111111111110;
 22B : 0000000000001000000000000001;
 22C : 1111111111110111111111111101;
 22D : 0000000000010111111111110010;
 22E : 0000000000111111111111111110;
 22F : 0000000001000000000000000100;
 230 : 0000000000110111111111111111;
 231 : 0000000000001011111111101011;
 232 : 0000000000010111111111101100;
 233 : 0000000001001011111111111100;
 234 : 0000000000010100000000000100;
 235 : 0000000000010100000000000101;
 236 : 0000000000111111111111111001;
 237 : 0000000001001000000000001001;
 238 : 0000000000000000000000000111;
 239 : 1111111111111100000000000010;
 23A : 1111111110110000000000001000;
 23B : 1111111111011000000000000001;
 23C : 1111111111000111111111111110;
 23D : 1111111111111011111111110111;
 23E : 1111111111110111111111110000;
 23F : 0000000000010000000000001001;
 240 : 1111111111111111111111110001;
 241 : 0000000000010011111111111110;
 242 : 0000000000010100000000001001;
 243 : 0000000000110000000000001010;
 244 : 1111111111011011111111101000;
 245 : 1111111111001100000000000100;
 246 : 0000000000010011111111111001;
 247 : 0000000000000011111111111001;
 248 : 0000000000110100000000010000;
 249 : 0000000000011000000000000100;
 24A : 0000000000000100000000000100;
 24B : 1111111111011111111111111110;
 24C : 0000000001100011111111111011;
 24D : 0000000000110100000000001010;
 24E : 0000000000011111111111111111;
 24F : 0000000000100000000000000000;
 250 : 1111111111011011111111101111;
 251 : 0000000000001011111111101101;
 252 : 1111111111111000000000000011;
 253 : 1111111111101000000000001010;
 254 : 0000000000001000000000000001;
 255 : 0000000000100011111111110110;
 256 : 0000000000000000000000001100;
 257 : 0000000000110000000000001100;
 258 : 1111111111111111111111111100;
 259 : 0000000000000100000000001011;
 25A : 1111111111001100000000000011;
 25B : 0000000000001000000000000010;
 25C : 0000000000110100000000000010;
 25D : 1111111111111000000000000100;
 25E : 0000000000001000000000000100;
 25F : 1111111111110000000000000001;
 260 : 0000000000000111111111111100;
 261 : 0000000000000111111111101110;
 262 : 0000000000100111111111110111;
 263 : 0000000000000100000000000010;
 264 : 0000000000110100000000010001;
 265 : 1111111110111011111111110011;
 266 : 1111111111110011111111110000;
 267 : 0000000000000000000000000100;
 268 : 0000000000010000000000000110;
 269 : 0000000000001011111111111101;
 26A : 0000000000110000000000000001;
 26B : 1111111111111111111111111001;
 26C : 1111111111101111111111110100;
 26D : 1111111110011011111111101110;
 26E : 0000000000101000000000000111;
 26F : 1111111111100011111111111010;
 270 : 0000000000110100000000000001;
 271 : 0000000000111000000000000100;
 272 : 0000000000001111111111111100;
 273 : 1111111111010111111111110100;
 274 : 1111111111000100000000000001;
 275 : 1111111111100011111111110100;
 276 : 0000000000001111111111110101;
 277 : 0000000000110011111111110010;
 278 : 0000000000000000000000000001;
 279 : 1111111111111100000000001000;
 27A : 1111111111111111111111110100;
 27B : 0000000000010011111111110111;
 27C : 1111111111111111111111101011;
 27D : 1111111111110011111111111011;
 27E : 1111111111001000000000000010;
 27F : 0000000000110011111111111100;
 280 : 0000000000110011111111111001;
 281 : 1111111111100100000000000101;
 282 : 0000000000001000000000000100;
 283 : 0000000000101100000000001000;
 284 : 1111111111110000000000000000;
 285 : 0000000000001100000000000011;
 286 : 1111111111001111111111101111;
 287 : 0000000000100000000000010001;
 288 : 1111111110111111111111111000;
 289 : 1111111111111000000000001100;
 28A : 0000000000001111111111111111;
 28B : 1111111111011100000000001000;
 28C : 0000000000001100000000000011;
 28D : 1111111111101100000000001011;
 28E : 0000000000000011111111111010;
 28F : 1111111110111000000000001000;
 290 : 0000000000110000000000000100;
 291 : 1111111111001100000000000100;
 292 : 0000000000100100000000000010;
 293 : 1111111111001111111111110010;
 294 : 0000000000110011111111111111;
 295 : 0000000000011000000000000110;
 296 : 0000000000100000000000001000;
 297 : 0000000000000000000000001110;
 298 : 1111111111111011111111111100;
 299 : 0000000000111000000000000110;
 29A : 0000000000001111111111111111;
 29B : 0000000000100100000000010000;
 29C : 1111111111010011111111111010;
 29D : 0000000000100111111111111000;
 29E : 1111111111111000000000000011;
 29F : 0000000000010000000000000001;
 2A0 : 1111111111110100000000000100;
 2A1 : 1111111111010111111111111101;
 2A2 : 1111111111010011111111111111;
 2A3 : 0000000000001000000000001100;
 2A4 : 1111111110110011111111111000;
 2A5 : 1111111111101100000000000100;
 2A6 : 0000000001100011111111111111;
 2A7 : 0000000000001011111111111111;
 2A8 : 1111111111011111111111111110;
 2A9 : 0000000001010111111111111100;
 2AA : 0000000000010111111111111111;
 2AB : 0000000000000100000000001001;
 2AC : 1111111111101000000000000001;
 2AD : 0000000000000111111111111110;
 2AE : 0000000000011011111111110110;
 2AF : 1111111111100011111111111100;
 2B0 : 1111111111101100000000000010;
 2B1 : 1111111111110000000000001011;
 2B2 : 1111111111110011111111110111;
 2B3 : 1111111111110000000000000100;
 2B4 : 1111111111110011111111101110;
 2B5 : 0000000001011111111111110111;
 2B6 : 1111111111100011111111111000;
 2B7 : 0000000000011111111111110110;
 2B8 : 1111111111001011111111111101;
 2B9 : 0000000000000011111111111000;
 2BA : 0000000001101011111111110111;
 2BB : 1111111111110011111111111000;
 2BC : 1111111111111000000000010100;
 2BD : 0000000000100011111111111110;
 2BE : 1111111111101000000000010000;
 2BF : 1111111111010000000000001001;
 2C0 : 0000000000110000000000010100;
 2C1 : 0000000000101011111111110110;
 2C2 : 0000000000100100000000001101;
 2C3 : 1111111111001100000000000000;
 2C4 : 0000000000001100000000001111;
 2C5 : 0000000000001000000000001010;
 2C6 : 1111111111110100000000001000;
 2C7 : 1111111111111100000000001010;
 2C8 : 1111111111011100000000001000;
 2C9 : 0000000000100011111111111111;
 2CA : 0000000000010111111111110100;
 2CB : 1111111111010100000000000001;
 2CC : 1111111111100000000000001101;
 2CD : 0000000000010100000000001011;
 2CE : 0000000001010000000000000011;
 2CF : 1111111111001000000000001001;
 2D0 : 1111111111001111111111110000;
 2D1 : 1111111111101011111111110011;
 2D2 : 1111111111110100000000000101;
 2D3 : 0000000000011111111111111011;
 2D4 : 1111111111101011111111110111;
 2D5 : 0000000000001011111111100010;
 2D6 : 0000000000001000000000001101;
 2D7 : 1111111111110000000000000010;
 2D8 : 1111111111110011111111111010;
 2D9 : 1111111111111000000000001010;
 2DA : 0000000000100011111111111000;
 2DB : 0000000000000100000000000000;
 2DC : 0000000000010111111111110000;
 2DD : 1111111111110011111111111111;
 2DE : 1111111111110000000000000011;
 2DF : 1111111111010000000000000100;
 2E0 : 1111111111011000000000000011;
 2E1 : 0000000000000011111111111011;
 2E2 : 0000000001100011111111110101;
 2E3 : 1111111111100011111111111001;
 2E4 : 0000000000110011111111101111;
 2E5 : 0000000000000100000000000110;
 2E6 : 0000000000101100000000000111;
 2E7 : 1111111111011000000000000000;
 2E8 : 1111111111110000000000000110;
 2E9 : 0000000000000011111111110100;
 2EA : 1111111111011111111111110100;
 2EB : 0000000000010011111111110011;
 2EC : 0000000001001111111111111010;
 2ED : 1111111111011000000000000101;
 2EE : 1111111110111000000000000011;
 2EF : 0000000000100011111111111100;
 2F0 : 0000000000010100000000000001;
 2F1 : 1111111111010111111111111010;
 2F2 : 1111111111110000000000000101;
 2F3 : 1111111111110000000000001000;
 2F4 : 1111111111100000000000001100;
 2F5 : 1111111111001100000000001111;
 2F6 : 1111111111010000000000000001;
 2F7 : 1111111110111011111111110101;
 2F8 : 0000000000000011111111110010;
 2F9 : 1111111111100111111111110111;
 2FA : 0000000000100000000000001111;
 2FB : 0000000000101100000000001010;
 2FC : 1111111111011100000000001000;
 2FD : 0000000000110111111111110001;
 2FE : 1111111111010000000000000011;
 2FF : 0000000000001111111111101000;
 300 : 0000000001010100000000001011;
 301 : 0000000001010011111111111110;
 302 : 0000000000100000000000000000;
 303 : 1111111111000000000000001101;
 304 : 1111111111101000000000000011;
 305 : 0000000000000100000000001100;
 306 : 1111111111111000000000000100;
 307 : 0000000000000000000000001100;
 308 : 1111111111110111111111111100;
 309 : 1111111111011011111111111101;
 30A : 0000000000000100000000000100;
 30B : 1111111111001100000000000101;
 30C : 0000000000000100000000000101;
 30D : 1111111111110111111111111100;
 30E : 0000000000111011111111111110;
 30F : 1111111111111000000000001001;
 310 : 0000000000110111111111110011;
 311 : 1111111111101000000000010111;
 312 : 0000000000001100000000001001;
 313 : 0000000000001000000000000100;
 314 : 0000000000001000000000001100;
 315 : 1111111111011000000000000010;
 316 : 0000000000010111111111111001;
 317 : 0000000000000111111111111110;
 318 : 0000000000101000000000000001;
 319 : 1111111111100011111111110100;
 31A : 1111111111110000000000001111;
 31B : 1111111111101100000000010000;
 31C : 1111111111011000000000000010;
 31D : 1111111111111100000000010010;
 31E : 0000000000100011111111111110;
 31F : 1111111111100011111111111111;
 320 : 0000000001000111111111110110;
 321 : 0000000000110000000000000100;
 322 : 1111111111100100000000001101;
 323 : 1111111111100111111111111101;
 324 : 1111111111100000000000001001;
 325 : 1111111110111000000000000100;
 326 : 1111111111101111111111111011;
 327 : 0000000000001000000000010000;
 328 : 0000000000001000000000011010;
 329 : 0000000000010000000000000111;
 32A : 1111111110100111111111110010;
 32B : 0000000000000111111111110110;
 32C : 1111111111100000000000000010;
 32D : 1111111111110100000000000110;
 32E : 1111111111101111111111111101;
 32F : 0000000000000000000000000101;
 330 : 0000000000011100000000000000;
 331 : 0000000000010100000000001000;
 332 : 1111111111110011111111111001;
 333 : 0000000000110011111111111110;
 334 : 1111111111101000000000000100;
 335 : 1111111111010111111111111100;
 336 : 1111111111011111111111111011;
 337 : 1111111110101100000000001011;
 338 : 0000000000000000000000000100;
 339 : 1111111111100000000000001100;
 33A : 1111111110101100000000000011;
 33B : 0000000000100000000000001010;
 33C : 0000000000011111111111111111;
 33D : 1111111111110000000000001000;
 33E : 0000000000101011111111101111;
 33F : 1111111111101100000000001010;
 340 : 0000000000001000000000000100;
 341 : 1111111111001000000000010101;
 342 : 0000000000011111111111111100;
 343 : 0000000000010011111111110111;
 344 : 1111111111111100000000000010;
 345 : 0000000000000011111111111111;
 346 : 1111111111011100000000000110;
 347 : 0000000000010100000000000001;
 348 : 0000000000101100000000001000;
 349 : 1111111111001000000000000001;
 34A : 0000000000100100000000010101;
 34B : 0000000000011000000000000111;
 34C : 0000000000100011111111101111;
 34D : 1111111111110100000000000011;
 34E : 0000000000011011111111110110;
 34F : 0000000000111100000000000001;
 350 : 0000000000010011111111110110;
 351 : 0000000000111000000000000001;
 352 : 0000000000110000000000000101;
 353 : 0000000000001111111111110010;
 354 : 1111111111111111111111110101;
 355 : 1111111111110111111111111001;
 356 : 1111111111011111111111111011;
 357 : 1111111111111100000000000000;
 358 : 0000000001000000000000000110;
 359 : 1111111111110100000000001011;
 35A : 1111111111001100000000000010;
 35B : 1111111111101000000000000010;
 35C : 1111111111110000000000000000;
 35D : 0000000000001011111111101000;
 35E : 0000000001000111111111111011;
 35F : 0000000000000011111111111110;
 360 : 0000000000110100000000000011;
 361 : 0000000000000111111111101111;
 362 : 0000000000000000000000001011;
 363 : 0000000000000100000000000010;
 364 : 0000000000100111111111111110;
 365 : 0000000000001011111111110110;
 366 : 1111111111111000000000001001;
 367 : 0000000000000011111111111110;
 368 : 0000000000011000000000010100;
 369 : 0000000000011111111111110000;
 36A : 0000000000101011111111111101;
 36B : 0000000000001000000000000010;
 36C : 0000000000010100000000000010;
 36D : 1111111111101100000000010100;
 36E : 1111111111111111111111111110;
 36F : 1111111111100011111111111000;
 370 : 0000000000010000000000000110;
 371 : 1111111111101100000000000001;
 372 : 0000000000100111111111111100;
 373 : 1111111111100111111111101110;
 374 : 0000000000011000000000000001;
 375 : 1111111111101011111111111001;
 376 : 1111111111110000000000000011;
 377 : 1111111111110100000000001000;
 378 : 1111111111100000000000000111;
 379 : 0000000000001111111111111001;
 37A : 0000000000011011111111111000;
 37B : 1111111111101111111111111100;
 37C : 1111111111001011111111111001;
 37D : 0000000000001000000000001001;
 37E : 0000000000011000000000000010;
 37F : 1111111111110000000000001010;
 380 : 0000000000001011111111110110;
 381 : 1111111111110000000000000110;
 382 : 0000000000001111111111111111;
 383 : 1111111111100000000000000110;
 384 : 0000000000000100000000000010;
 385 : 0000000000110011111111110110;
 386 : 1111111111100111111111110110;
 387 : 0000000000010000000000000010;
 388 : 1111111111010100000000000100;
 389 : 1111111111100000000000010001;
 38A : 1111111111001000000000000010;
 38B : 1111111111110000000000001000;
 38C : 0000000000010100000000000100;
 38D : 0000000000000100000000001011;
 38E : 1111111111110000000000001010;
 38F : 0000000000000100000000000111;
 390 : 1111111111101100000000000101;
 391 : 1111111111111000000000001000;
 392 : 0000000000011011111111110010;
 393 : 1111111111000000000000000010;
 394 : 1111111111110000000000000111;
 395 : 0000000000001100000000000100;
 396 : 0000000001010000000000000001;
 397 : 0000000000110000000000001001;
 398 : 1111111111111100000000000010;
 399 : 1111111111110111111111111101;
 39A : 1111111111110011111111101100;
 39B : 0000000000100000000000011100;
 39C : 0000000000100000000000001011;
 39D : 1111111111110000000000010011;
 39E : 1111111111100000000000001010;
 39F : 0000000000010000000000000000;
 3A0 : 0000000000000000000000010000;
 3A1 : 0000000000001000000000000110;
 3A2 : 0000000000000100000000001111;
 3A3 : 0000000000010100000000010110;
 3A4 : 1111111111000011111111111111;
 3A5 : 0000000000011000000000001001;
 3A6 : 0000000001000100000000010100;
 3A7 : 1111111111110100000000000011;
 3A8 : 0000000000111000000000000000;
 3A9 : 1111111111011000000000000010;
 3AA : 1111111111101000000000010001;
 3AB : 0000000000100100000000001000;
 3AC : 1111111111111100000000000010;
 3AD : 1111111111110100000000000111;
 3AE : 0000000000101000000000001000;
 3AF : 1111111111111011111111110111;
 3B0 : 1111111111111111111111111111;
 3B1 : 0000000000100100000000001101;
 3B2 : 1111111111111100000000010100;
 3B3 : 1111111111001000000000001000;
 3B4 : 0000000000000111111111111001;
 3B5 : 1111111111101100000000000101;
 3B6 : 0000000000010111111111111111;
 3B7 : 0000000000010000000000000011;
 3B8 : 1111111111110100000000001000;
 3B9 : 1111111111010000000000000110;
 3BA : 0000000000000100000000001010;
 3BB : 0000000000100100000000010010;
 3BC : 0000000000100000000000010011;
 3BD : 0000000001011000000000010001;
 3BE : 1111111111001100000000001110;
 3BF : 0000000000000000000000001010;
 3C0 : 1111111111101000000000000110;
 3C1 : 0000000000000100000000001100;
 3C2 : 0000000000000000000000000001;
 3C3 : 1111111111101100000000000001;
 3C4 : 0000000000000111111111111100;
 3C5 : 0000000000011100000000000101;
 3C6 : 1111111111100000000000001100;
 3C7 : 0000000000001000000000001000;
 3C8 : 0000000000100100000000001111;
 3C9 : 0000000000111100000000010010;
 3CA : 0000000000111100000000000111;
 3CB : 0000000000100000000000001000;
 3CC : 0000000000101100000000001111;
 3CD : 0000000000011000000000000010;
 3CE : 0000000000010000000000010000;
 3CF : 0000000000010100000000010100;
 3D0 : 0000000001001100000000011101;
 3D1 : 0000000000100000000000011110;
 3D2 : 0000000000110100000000100000;
 3D3 : 0000000000100100000000110101;
 3D4 : 0000000001100100000001011101;
 3D5 : 0000000111101100000110101000;
 3D6 : 1111111011011011111100111110;
 3D7 : 1111111110100111111110100111;
 3D8 : 1111111110000111111111011000;
 3D9 : 1111111111111111111111100001;
 3DA : 1111111110100011111111101011;
 3DB : 0000000000001011111111100001;
 3DC : 1111111111001011111111111000;
 3DD : 1111111111110011111111101110;
 3DE : 0000000000010000000000000001;
 3DF : 1111111111001011111111100111;
 3E0 : 0000000000011100000000001010;
 3E1 : 1111111110100011111111111110;
 3E2 : 1111111111101111111111110100;
 3E3 : 0000000000000111111111101001;
 3E4 : 1111111111111000000000000101;
 3E5 : 0000000000000111111111111100;
 3E6 : 0000000000001011111111110111;
 3E7 : 1111111111001111111111101110;
 3E8 : 0000000000110100000000000010;
 3E9 : 0000000000010000000000000000;
 3EA : 1111111111010111111111111001;
 3EB : 0000000000111111111111111001;
 3EC : 0000000000000000000000000000;
 3ED : 0000000000001100000000001001;
 3EE : 0000000000110011111111101101;
 3EF : 1111111111100000000000000111;
 3F0 : 0000000000010111111111111000;
 3F1 : 1111111111101100000000001011;
 3F2 : 0000000000110111111111110001;
 3F3 : 0000000000100100000000000110;
 3F4 : 1111111111011011111111111011;
 3F5 : 1111111111100100000000001010;
 3F6 : 0000000000001111111111111100;
 3F7 : 0000000000011100000000001000;
 3F8 : 1111111111111111111111111010;
 3F9 : 0000000000011011111111110111;
 3FA : 1111111111100111111111111111;
 3FB : 1111111111100111111111111100;
 3FC : 0000000000001100000000000110;
 3FD : 1111111111100000000000000110;
 3FE : 1111111111110100000000000100;
 3FF : 1111111111011011111111110110;
END;
