WIDTH=28;
DEPTH=1024;
ADDRESS_RADIX=HEX;
DATA_RADIX=BIN;

CONTENT
BEGIN
 00 : 0000000001001000000000000000;
 01 : 0000000000001011111111110110;
 02 : 0000000000001011111111110101;
 03 : 0000000000000011111111111011;
 04 : 0000000000001011111111111111;
 05 : 0000000000110000000000001000;
 06 : 0000000000100111111111111000;
 07 : 0000000000010011111111111110;
 08 : 0000000000011111111111110100;
 09 : 1111111111110100000000000001;
 0A : 1111111111001011111111111011;
 0B : 0000000000010000000000001000;
 0C : 0000000000001000000000001100;
 0D : 0000000000110100000000001010;
 0E : 1111111111111000000000000001;
 0F : 0000000000010111111111111011;
 10 : 0000000000111011111111111101;
 11 : 0000000000111000000000000000;
 12 : 0000000000110100000000000001;
 13 : 1111111111100111111111111110;
 14 : 1111111111100000000000000011;
 15 : 0000000000111111111111101011;
 16 : 0000000000111011111111111101;
 17 : 0000000001001011111111111101;
 18 : 0000000000011000000000000001;
 19 : 1111111111101111111111110011;
 1A : 0000000000110111111111111000;
 1B : 0000000000010011111111111011;
 1C : 0000000000101111111111111001;
 1D : 0000000000110100000000000101;
 1E : 0000000000111011111111110100;
 1F : 0000000000100111111111111011;
 20 : 0000000000110100000000000000;
 21 : 0000000001000111111111101100;
 22 : 0000000000011011111111100110;
 23 : 0000000001000011111111111100;
 24 : 0000000001000011111111111000;
 25 : 0000000001011011111111011110;
 26 : 0000000001010111111111110001;
 27 : 0000000001001111111111100110;
 28 : 0000000010010011111111010010;
 29 : 0000000010111011111111010011;
 2A : 0000001001100111111101101011;
 2B : 1111101100101000000100101000;
 2C : 1111111011100100000001001111;
 2D : 1111111101101000000000011100;
 2E : 1111111101101000000000100111;
 2F : 1111111111001100000000010001;
 30 : 1111111111100000000000010100;
 31 : 0000000000000100000000010110;
 32 : 1111111110110000000000010111;
 33 : 1111111111011100000000010000;
 34 : 1111111111110000000000000110;
 35 : 1111111110101000000000000011;
 36 : 1111111111001000000000001011;
 37 : 0000000000001011111111111111;
 38 : 0000000000101100000000010000;
 39 : 1111111110011000000000001111;
 3A : 0000000000100100000000001001;
 3B : 1111111111000000000000000110;
 3C : 1111111111111000000000001111;
 3D : 1111111110110100000000001001;
 3E : 1111111110100000000000010011;
 3F : 0000000001010111111111111110;
 40 : 1111111111010100000000010011;
 41 : 1111111110110000000000000100;
 42 : 0000000000111011111111101110;
 43 : 1111111111101111111111111101;
 44 : 1111111111010100000000001101;
 45 : 0000000000100111111111111101;
 46 : 1111111111111100000000010010;
 47 : 1111111111110100000000001110;
 48 : 0000000000011100000000000000;
 49 : 1111111111100111111111111011;
 4A : 1111111111000100000000001010;
 4B : 1111111111100011111111111100;
 4C : 0000000000000100000000000100;
 4D : 0000000000010100000000001010;
 4E : 1111111111110011111111111100;
 4F : 1111111111001111111111111110;
 50 : 0000000000001100000000000011;
 51 : 0000000000000100000000001111;
 52 : 1111111111111011111111111100;
 53 : 1111111111110000000000000100;
 54 : 1111111111111100000000000010;
 55 : 1111111111111000000000000100;
 56 : 1111111111001100000000001110;
 57 : 1111111111011000000000001111;
 58 : 1111111111111011111111111101;
 59 : 0000000000100011111111110101;
 5A : 1111111111101100000000001100;
 5B : 0000000000101011111111111111;
 5C : 0000000000000100000000000001;
 5D : 1111111111101111111111111100;
 5E : 1111111111101011111111111111;
 5F : 0000000000101011111111110111;
 60 : 0000000000000000000000000110;
 61 : 1111111111101100000000000010;
 62 : 0000000000100000000000000101;
 63 : 1111111111111000000000000110;
 64 : 0000000000011100000000000000;
 65 : 1111111111111000000000001100;
 66 : 1111111111011011111111111101;
 67 : 1111111111001000000000010101;
 68 : 1111111111100100000000000011;
 69 : 0000000000011111111111110101;
 6A : 1111111111100111111111110111;
 6B : 1111111111110011111111110100;
 6C : 0000000000101100000000001000;
 6D : 1111111110110100000000000101;
 6E : 0000000000000000000000001001;
 6F : 0000000000001100000000000010;
 70 : 1111111111010100000000001011;
 71 : 0000000000110100000000000110;
 72 : 1111111111100100000000000011;
 73 : 0000000001000011111111111000;
 74 : 0000000000010111111111111001;
 75 : 0000000000011000000000000110;
 76 : 0000000000001000000000000101;
 77 : 1111111111111011111111110010;
 78 : 0000000000001011111111110101;
 79 : 0000000000010011111111111110;
 7A : 0000000000001011111111111100;
 7B : 1111111111010111111111111101;
 7C : 1111111111000011111111111110;
 7D : 1111111111110000000000000100;
 7E : 1111111110111100000000000100;
 7F : 0000000000000100000000010000;
 80 : 0000000000100000000000000000;
 81 : 1111111111100011111111111011;
 82 : 0000000000001100000000001101;
 83 : 1111111111110000000000000011;
 84 : 1111111111100011111111111001;
 85 : 1111111111011011111111111010;
 86 : 1111111111001111111111111110;
 87 : 0000000000001000000000000100;
 88 : 0000000000001011111111111011;
 89 : 0000000000010011111111110110;
 8A : 1111111111111000000000000011;
 8B : 1111111111100011111111111111;
 8C : 1111111111101011111111111000;
 8D : 0000000001011111111111111000;
 8E : 1111111111001100000000001100;
 8F : 1111111111100000000000001000;
 90 : 0000000000110111111111111010;
 91 : 0000000000100111111111111000;
 92 : 0000000000001011111111110110;
 93 : 1111111110111011111111111000;
 94 : 0000000000001100000000000101;
 95 : 0000000000001100000000001000;
 96 : 1111111111100100000000000110;
 97 : 1111111111111111111111111100;
 98 : 0000000000001100000000000111;
 99 : 1111111111100000000000010010;
 9A : 1111111111011000000000000011;
 9B : 1111111110111000000000001000;
 9C : 1111111111111011111111111111;
 9D : 0000000000010000000000001000;
 9E : 1111111111011111111111111110;
 9F : 0000000000000000000000001101;
 A0 : 0000000000101000000000001100;
 A1 : 0000000000011000000000001000;
 A2 : 0000000000010100000000000111;
 A3 : 1111111111110111111111111000;
 A4 : 0000000000011111111111111010;
 A5 : 1111111111011000000000000111;
 A6 : 0000000000010000000000000110;
 A7 : 1111111111111111111111101011;
 A8 : 0000000000111111111111111011;
 A9 : 1111111111001000000000001100;
 AA : 0000000000010000000000000110;
 AB : 1111111111101000000000000101;
 AC : 0000000000010111111111110011;
 AD : 1111111111111100000000000111;
 AE : 0000000000110100000000000010;
 AF : 1111111111011100000000001011;
 B0 : 0000000000001000000000000011;
 B1 : 1111111110110000000000001011;
 B2 : 0000000000101100000000000100;
 B3 : 1111111110110100000000000011;
 B4 : 1111111111111011111111110101;
 B5 : 0000000001001011111111110101;
 B6 : 0000000001000100000000000000;
 B7 : 0000000000001111111111111101;
 B8 : 1111111111010100000000000000;
 B9 : 0000000001000011111111111011;
 BA : 0000000000101000000000001000;
 BB : 1111111111010000000000000100;
 BC : 1111111111110000000000001011;
 BD : 0000000000000111111111111110;
 BE : 0000000000010100000000001100;
 BF : 0000000000000011111111111111;
 C0 : 0000000000010111111111110011;
 C1 : 0000000000100011111111111110;
 C2 : 0000000000011000000000001001;
 C3 : 1111111111110000000000010011;
 C4 : 0000000000000100000000001011;
 C5 : 1111111111101011111111111101;
 C6 : 0000000000111000000000000000;
 C7 : 1111111111001100000000000011;
 C8 : 0000000000000111111111110001;
 C9 : 0000000000100111111111111110;
 CA : 0000000000010111111111111100;
 CB : 0000000000010011111111110000;
 CC : 1111111111111100000000001100;
 CD : 0000000000011111111111111110;
 CE : 1111111111110011111111111000;
 CF : 1111111111011111111111111111;
 D0 : 0000000000101000000000000110;
 D1 : 0000000000001011111111111001;
 D2 : 0000000000001111111111111001;
 D3 : 0000000000000111111111111110;
 D4 : 1111111111011111111111111000;
 D5 : 1111111110010111111111111010;
 D6 : 0000000000101100000000000110;
 D7 : 1111111111100000000000000110;
 D8 : 1111111111111111111111110011;
 D9 : 1111111111100100000000000010;
 DA : 1111111111110111111111111010;
 DB : 0000000000000011111111110110;
 DC : 1111111111100111111111110110;
 DD : 1111111110100111111111110011;
 DE : 1111111111101111111111111001;
 DF : 0000000000000100000000000101;
 E0 : 1111111111100011111111110001;
 E1 : 1111111111110111111111110011;
 E2 : 1111111111110000000000000101;
 E3 : 0000000000101011111111111101;
 E4 : 0000000000100000000000000001;
 E5 : 1111111111111000000000001011;
 E6 : 1111111110111000000000000001;
 E7 : 1111111111011011111111111011;
 E8 : 1111111111110000000000000000;
 E9 : 0000000000011000000000000000;
 EA : 0000000000000100000000001011;
 EB : 0000000000010011111111111111;
 EC : 1111111111101111111111111010;
 ED : 1111111111110100000000011000;
 EE : 1111111111100100000000000011;
 EF : 0000000000001011111111110111;
 F0 : 1111111111111111111111111101;
 F1 : 1111111111110100000000000001;
 F2 : 0000000001001000000000000010;
 F3 : 1111111111011011111111111000;
 F4 : 0000000000011111111111110101;
 F5 : 1111111111101100000000000100;
 F6 : 0000000000101011111111110110;
 F7 : 0000000000001000000000010111;
 F8 : 1111111111001000000000000100;
 F9 : 1111111111111111111111110110;
 FA : 0000000000001111111111111011;
 FB : 1111111111110111111111110010;
 FC : 1111111111010111111111111111;
 FD : 0000000000001111111111111000;
 FE : 1111111111111011111111110110;
 FF : 1111111110111011111111111101;
 100 : 1111111111101111111111101110;
 101 : 1111111111010111111111110111;
 102 : 1111111111100000000000000001;
 103 : 0000000000001000000000000101;
 104 : 1111111110111000000000000101;
 105 : 1111111111110111111111101101;
 106 : 1111111111100000000000000101;
 107 : 1111111111100011111111101111;
 108 : 1111111111010111111111111100;
 109 : 1111111111111111111111111110;
 10A : 0000000000100011111111101110;
 10B : 1111111111010011111111111101;
 10C : 0000000000010011111111110111;
 10D : 0000000000001000000000000111;
 10E : 1111111111111000000000001001;
 10F : 1111111111100111111111111100;
 110 : 0000000000000011111111111001;
 111 : 0000000000110100000000001010;
 112 : 0000000000011011111111111110;
 113 : 1111111111111111111111111110;
 114 : 1111111111101000000000000011;
 115 : 0000000000101011111111110100;
 116 : 1111111111010011111111110101;
 117 : 1111111111001000000000000010;
 118 : 0000000000011100000000000000;
 119 : 1111111111110000000000000011;
 11A : 1111111110101100000000000101;
 11B : 1111111111110000000000001100;
 11C : 1111111111110011111111111101;
 11D : 0000000000001111111111111001;
 11E : 1111111110111111111111111111;
 11F : 1111111111010000000000000001;
 120 : 0000000000001000000000010010;
 121 : 1111111111001011111111111001;
 122 : 1111111111110011111111111100;
 123 : 0000000001000000000000000000;
 124 : 0000000000011100000000010101;
 125 : 0000000000111100000000001010;
 126 : 0000000000001100000000000110;
 127 : 1111111111111111111111111101;
 128 : 0000000000101011111111101101;
 129 : 1111111111110111111111111101;
 12A : 0000000000010000000000001011;
 12B : 1111111111011111111111111110;
 12C : 1111111111111100000000001001;
 12D : 1111111111110111111111111001;
 12E : 1111111111010100000000001000;
 12F : 1111111111011100000000000000;
 130 : 1111111111011111111111111110;
 131 : 1111111111111000000000000111;
 132 : 0000000001001011111111111101;
 133 : 1111111111101011111111111010;
 134 : 0000000000001000000000000010;
 135 : 1111111111011011111111111010;
 136 : 1111111111001100000000011000;
 137 : 0000000000110111111111101010;
 138 : 0000000000000011111111111000;
 139 : 1111111111100000000000001110;
 13A : 1111111111100011111111110010;
 13B : 0000000000110000000000000000;
 13C : 1111111111100000000000000101;
 13D : 1111111111101000000000001001;
 13E : 1111111111110011111111101111;
 13F : 1111111111110111111111111001;
 140 : 0000000000111100000000000111;
 141 : 0000000000110100000000010100;
 142 : 1111111111100111111111110111;
 143 : 1111111111110100000000000100;
 144 : 0000000000001000000000000000;
 145 : 1111111111001011111111111101;
 146 : 0000000000010011111111111000;
 147 : 1111111111100011111111111100;
 148 : 0000000000010000000000001100;
 149 : 1111111111111100000000000110;
 14A : 0000000000111000000000000110;
 14B : 1111111111001100000000000011;
 14C : 0000000000010100000000000001;
 14D : 1111111111001000000000000110;
 14E : 0000000000110100000000001010;
 14F : 1111111111111100000000000001;
 150 : 0000000000010100000000001011;
 151 : 1111111111100000000000001001;
 152 : 1111111111100100000000000010;
 153 : 1111111111101000000000000110;
 154 : 0000000001001100000000001000;
 155 : 0000000000111000000000001010;
 156 : 0000000001000000000000000110;
 157 : 1111111111100011111111111110;
 158 : 1111111111100111111111111000;
 159 : 1111111111010111111111111001;
 15A : 1111111111110000000000000010;
 15B : 0000000000011111111111110100;
 15C : 1111111111100000000000000000;
 15D : 0000000000101000000000000110;
 15E : 0000000000000100000000001001;
 15F : 1111111111110011111111111110;
 160 : 0000000000001011111111111010;
 161 : 0000000000011100000000001010;
 162 : 0000000000001011111111111110;
 163 : 1111111111010000000000010101;
 164 : 1111111111011111111111111100;
 165 : 0000000000111011111111111000;
 166 : 0000000000000111111111110001;
 167 : 1111111111111000000000001010;
 168 : 1111111111011011111111110010;
 169 : 1111111111101011111111110100;
 16A : 0000000000010011111111111111;
 16B : 0000000000000000000000000101;
 16C : 1111111111001011111111110100;
 16D : 1111111111100111111111110111;
 16E : 0000000000111100000000001001;
 16F : 0000000000001111111111110011;
 170 : 0000000000111111111111111001;
 171 : 1111111111100100000000000100;
 172 : 1111111111110111111111110101;
 173 : 1111111111011011111111110100;
 174 : 0000000000011111111111110010;
 175 : 0000000000111100000000000000;
 176 : 1111111111110100000000001000;
 177 : 0000000000000100000000000111;
 178 : 0000000000110011111111111000;
 179 : 0000000000000111111111111101;
 17A : 1111111111010111111111111011;
 17B : 0000000000101100000000000100;
 17C : 1111111111101111111111111110;
 17D : 1111111111000111111111111000;
 17E : 0000000000000111111111110000;
 17F : 0000000000011011111111111110;
 180 : 1111111111001111111111111110;
 181 : 1111111111001111111111111000;
 182 : 0000000000101111111111111001;
 183 : 1111111111101011111111111110;
 184 : 1111111111110100000000000010;
 185 : 0000000000111011111111111111;
 186 : 1111111111100111111111111111;
 187 : 0000000000000100000000000101;
 188 : 0000000000010111111111111111;
 189 : 0000000000000100000000001000;
 18A : 1111111111111011111111110101;
 18B : 0000000000101011111111111100;
 18C : 1111111111111000000000000001;
 18D : 0000000000001000000000001100;
 18E : 0000000000010111111111110110;
 18F : 1111111111110100000000001010;
 190 : 1111111111010011111111111100;
 191 : 1111111111010100000000001111;
 192 : 1111111111110111111111111011;
 193 : 0000000000010000000000001000;
 194 : 1111111111110100000000001101;
 195 : 0000000000000100000000000000;
 196 : 1111111111101111111111111101;
 197 : 1111111111101111111111111111;
 198 : 1111111111100100000000001101;
 199 : 1111111111101100000000000011;
 19A : 0000000000011100000000000100;
 19B : 0000000000100011111111101110;
 19C : 1111111111101000000000010111;
 19D : 1111111111011000000000001000;
 19E : 1111111110011000000000000111;
 19F : 0000000000000111111111111101;
 1A0 : 1111111111111111111111111000;
 1A1 : 1111111111101000000000000010;
 1A2 : 0000000001000111111111110001;
 1A3 : 1111111111110100000000000100;
 1A4 : 1111111111111111111111110010;
 1A5 : 0000000001000100000000000111;
 1A6 : 0000000000010000000000000110;
 1A7 : 0000000000000100000000001010;
 1A8 : 1111111111011011111111111101;
 1A9 : 1111111111110011111111111100;
 1AA : 1111111111100011111111111100;
 1AB : 1111111111101111111111111100;
 1AC : 0000000000001000000000000110;
 1AD : 0000000000110011111111111000;
 1AE : 1111111111101111111111111111;
 1AF : 1111111111100100000000001110;
 1B0 : 0000000000000000000000000011;
 1B1 : 1111111111011000000000001010;
 1B2 : 1111111111100100000000000000;
 1B3 : 1111111111011000000000001010;
 1B4 : 1111111111011011111111110100;
 1B5 : 1111111111011111111111111001;
 1B6 : 0000000000010100000000000010;
 1B7 : 1111111110101011111111111111;
 1B8 : 1111111111110000000000000000;
 1B9 : 0000000000111000000000000110;
 1BA : 1111111111101000000000000101;
 1BB : 0000000000011100000000000001;
 1BC : 0000000000101111111111110111;
 1BD : 0000000000100011111111111110;
 1BE : 1111111111000111111111110110;
 1BF : 1111111111100011111111111101;
 1C0 : 0000000000010000000000000001;
 1C1 : 1111111111111111111111101010;
 1C2 : 1111111111110000000000001110;
 1C3 : 0000000000110111111111101111;
 1C4 : 0000000001000011111111111100;
 1C5 : 1111111111010100000000000000;
 1C6 : 1111111111101111111111111100;
 1C7 : 0000000001010000000000000111;
 1C8 : 0000000000101000000000001000;
 1C9 : 0000000000001111111111111010;
 1CA : 0000000000100011111111111001;
 1CB : 1111111111111011111111111111;
 1CC : 0000000000100111111111110111;
 1CD : 0000000000101111111111111110;
 1CE : 1111111111000011111111111111;
 1CF : 1111111110101100000000001011;
 1D0 : 1111111111101000000000001000;
 1D1 : 0000000000010000000000000100;
 1D2 : 1111111111011111111111110010;
 1D3 : 0000000001000000000000001000;
 1D4 : 1111111111110000000000001100;
 1D5 : 0000000000011111111111111110;
 1D6 : 0000000000001100000000001001;
 1D7 : 0000000000100011111111111100;
 1D8 : 0000000000101011111111110010;
 1D9 : 0000000000001100000000000110;
 1DA : 1111111111011100000000000000;
 1DB : 0000000000000100000000000110;
 1DC : 0000000000000111111111111110;
 1DD : 0000000000001011111111111000;
 1DE : 0000000000010111111111101100;
 1DF : 0000000000010111111111111100;
 1E0 : 0000000000000000000000001011;
 1E1 : 1111111110100000000000000010;
 1E2 : 1111111111100000000000000011;
 1E3 : 0000000000001000000000000101;
 1E4 : 1111111111110000000000000001;
 1E5 : 1111111111110011111111111010;
 1E6 : 1111111111101011111111101101;
 1E7 : 1111111111011011111111110001;
 1E8 : 1111111110111111111111111010;
 1E9 : 0000000000110111111111111011;
 1EA : 0000000000001100000000000111;
 1EB : 1111111111000100000000000011;
 1EC : 1111111111100111111111111111;
 1ED : 1111111111100111111111111000;
 1EE : 1111111111001111111111111111;
 1EF : 0000000000010111111111111000;
 1F0 : 0000000000011111111111111011;
 1F1 : 0000000000010000000000000011;
 1F2 : 1111111111010000000000000001;
 1F3 : 1111111111110000000000001011;
 1F4 : 1111111111010000000000000010;
 1F5 : 1111111111101111111111111100;
 1F6 : 0000000000011111111111111011;
 1F7 : 0000000000111000000000000001;
 1F8 : 1111111111110100000000001100;
 1F9 : 0000000000011100000000001010;
 1FA : 0000000000011011111111111110;
 1FB : 1111111111001011111111110001;
 1FC : 0000000000011111111111111010;
 1FD : 0000000000000011111111111110;
 1FE : 0000000001000000000000000101;
 1FF : 0000000000100100000000001100;
 200 : 1111111111011000000000000000;
 201 : 0000000000100111111111110011;
 202 : 0000000001000011111111111010;
 203 : 0000000000000000000000000001;
 204 : 0000000000011100000000000101;
 205 : 1111111111001000000000001110;
 206 : 0000000000011000000000000001;
 207 : 0000000000011111111111110101;
 208 : 1111111111110111111111110011;
 209 : 0000000000111011111111111110;
 20A : 0000000000011100000000000100;
 20B : 1111111111101100000000000011;
 20C : 1111111111010011111111111101;
 20D : 1111111111110011111111110100;
 20E : 1111111111010011111111111110;
 20F : 0000000000010011111111111100;
 210 : 0000000000011100000000000100;
 211 : 0000000000010100000000000111;
 212 : 1111111111001100000000000000;
 213 : 1111111111100100000000000111;
 214 : 1111111111100100000000000000;
 215 : 1111111111000111111111111100;
 216 : 0000000000001111111111111000;
 217 : 0000000000110100000000000100;
 218 : 1111111110111100000000000101;
 219 : 1111111111011000000000001110;
 21A : 1111111111101000000000010010;
 21B : 1111111111110000000000000101;
 21C : 1111111111110011111111111110;
 21D : 0000000000001011111111111010;
 21E : 1111111111100011111111111100;
 21F : 1111111110100011111111111101;
 220 : 0000000000000011111111110100;
 221 : 0000000000010100000000000011;
 222 : 0000000000010100000000010011;
 223 : 0000000000001000000000000111;
 224 : 0000000000000100000000000001;
 225 : 0000000000000111111111111001;
 226 : 1111111111011111111111111111;
 227 : 0000000000001111111111111001;
 228 : 0000000000101000000000001101;
 229 : 0000000000100000000000000011;
 22A : 0000000000001111111111110110;
 22B : 0000000000011100000000000001;
 22C : 1111111111110011111111110011;
 22D : 0000000001000011111111110111;
 22E : 1111111111011100000000001101;
 22F : 0000000000010011111111111011;
 230 : 1111111111101011111111110111;
 231 : 1111111110101111111111110100;
 232 : 1111111111000000000000000000;
 233 : 0000000000101100000000000001;
 234 : 0000000000100100000000001000;
 235 : 1111111111111000000000000000;
 236 : 0000000000100000000000000110;
 237 : 0000000000001100000000000101;
 238 : 0000000000101011111111110111;
 239 : 0000000001010011111111111000;
 23A : 1111111111101100000000000011;
 23B : 1111111111010111111111111111;
 23C : 0000000001000000000000000011;
 23D : 0000000000110100000000010000;
 23E : 1111111111110011111111110001;
 23F : 1111111111111100000000010101;
 240 : 0000000000010011111111111110;
 241 : 1111111111100000000000000010;
 242 : 1111111111000100000000001001;
 243 : 0000000000100000000000000001;
 244 : 0000000000101100000000001000;
 245 : 0000000000011111111111111110;
 246 : 1111111111101011111111111010;
 247 : 0000000000111011111111111001;
 248 : 1111111111110011111111111111;
 249 : 1111111110101000000000000000;
 24A : 0000000000010111111111111101;
 24B : 1111111111011100000000000110;
 24C : 1111111111011000000000001011;
 24D : 1111111111011011111111110101;
 24E : 1111111111100111111111111111;
 24F : 1111111111011011111111110101;
 250 : 0000000000000011111111111100;
 251 : 1111111111100111111111110001;
 252 : 1111111111101100000000000000;
 253 : 0000000000110000000000000111;
 254 : 0000000000001011111111111001;
 255 : 1111111111101100000000000011;
 256 : 1111111111100000000000000011;
 257 : 1111111111110000000000000011;
 258 : 1111111111011000000000000010;
 259 : 0000000000000111111111110101;
 25A : 0000000000010011111111111001;
 25B : 0000000001000111111111111000;
 25C : 1111111111111100000000001101;
 25D : 1111111111110111111111111011;
 25E : 0000000001000100000000001110;
 25F : 1111111111101011111111111101;
 260 : 1111111111111100000000000111;
 261 : 0000000000000100000000000010;
 262 : 1111111110011011111111111000;
 263 : 1111111111011011111111110111;
 264 : 1111111111101011111111101000;
 265 : 0000000000100000000000010001;
 266 : 0000000000011111111111111011;
 267 : 1111111111101111111111111100;
 268 : 1111111111100111111111110010;
 269 : 1111111111101100000000000000;
 26A : 1111111111101100000000000010;
 26B : 0000000000000111111111111111;
 26C : 1111111111110111111111110010;
 26D : 0000000000010011111111110111;
 26E : 1111111111110100000000000100;
 26F : 1111111111010111111111110000;
 270 : 1111111111010000000000000011;
 271 : 1111111111110111111111110101;
 272 : 0000000000010100000000001001;
 273 : 0000000000001011111111110011;
 274 : 1111111111111011111111111110;
 275 : 0000000000101000000000000011;
 276 : 1111111111111000000000001010;
 277 : 0000000000000111111111110111;
 278 : 0000000000010100000000000000;
 279 : 0000000000000111111111111010;
 27A : 1111111111100100000000000000;
 27B : 0000000000111000000000000000;
 27C : 1111111111110111111111111101;
 27D : 1111111111101000000000000001;
 27E : 0000000000101100000000000110;
 27F : 1111111111001100000000000111;
 280 : 1111111111001100000000000001;
 281 : 0000000000011000000000000001;
 282 : 0000000000000100000000001111;
 283 : 1111111111000100000000000111;
 284 : 1111111111101100000000000001;
 285 : 0000000000101111111111111011;
 286 : 1111111111010100000000000100;
 287 : 0000000000000100000000000010;
 288 : 0000000000110000000000000111;
 289 : 0000000000000111111111111000;
 28A : 1111111111110111111111110111;
 28B : 0000000000111111111111111111;
 28C : 0000000000011100000000001101;
 28D : 1111111111011000000000001011;
 28E : 1111111111110100000000001010;
 28F : 1111111111100111111111111011;
 290 : 0000000000111100000000000110;
 291 : 0000000000001100000000001100;
 292 : 0000000000111111111111110110;
 293 : 1111111111100100000000001000;
 294 : 1111111111001000000000001011;
 295 : 0000000000000011111111111010;
 296 : 0000000000010000000000000000;
 297 : 1111111111101000000000001011;
 298 : 1111111111011000000000001101;
 299 : 1111111111111011111111110101;
 29A : 0000000000000100000000001110;
 29B : 0000000000111000000000000111;
 29C : 1111111111011100000000000011;
 29D : 1111111111010011111111101010;
 29E : 0000000000001000000000000001;
 29F : 0000000000011111111111110101;
 2A0 : 0000000000001000000000000101;
 2A1 : 1111111111110000000000000001;
 2A2 : 0000000000000111111111110110;
 2A3 : 0000000000101011111111111001;
 2A4 : 1111111111100011111111111111;
 2A5 : 0000000000011100000000001011;
 2A6 : 1111111111110011111111111101;
 2A7 : 1111111111010100000000000110;
 2A8 : 1111111111100100000000000111;
 2A9 : 1111111111100000000000000001;
 2AA : 0000000001000011111111111001;
 2AB : 0000000000111011111111110101;
 2AC : 0000000001001111111111110111;
 2AD : 1111111111101011111111111001;
 2AE : 1111111111100111111111111101;
 2AF : 1111111111100011111111110110;
 2B0 : 0000000000010111111111110100;
 2B1 : 1111111111111111111111111110;
 2B2 : 0000000000110111111111110101;
 2B3 : 1111111111001011111111111001;
 2B4 : 0000000000010111111111111110;
 2B5 : 1111111111001111111111111100;
 2B6 : 0000000000111011111111111001;
 2B7 : 1111111111111111111111111001;
 2B8 : 0000000000010011111111110011;
 2B9 : 1111111111100000000000000011;
 2BA : 0000000000010000000000000111;
 2BB : 1111111111001000000000000010;
 2BC : 0000000000001011111111111111;
 2BD : 1111111111110111111111111011;
 2BE : 1111111111100100000000001000;
 2BF : 0000000000110111111111101011;
 2C0 : 0000000000111111111111111000;
 2C1 : 1111111111110100000000000110;
 2C2 : 1111111111110000000000010000;
 2C3 : 1111111111101011111111110110;
 2C4 : 1111111111100011111111111010;
 2C5 : 0000000000110011111111111111;
 2C6 : 1111111111100000000000001101;
 2C7 : 1111111111100011111111110001;
 2C8 : 0000000000000000000000000111;
 2C9 : 0000000000110100000000010101;
 2CA : 1111111111001111111111100111;
 2CB : 1111111111011000000000000101;
 2CC : 0000000000001011111111111101;
 2CD : 1111111111101000000000000101;
 2CE : 0000000001001000000000000010;
 2CF : 1111111111111011111111111000;
 2D0 : 1111111111011100000000000001;
 2D1 : 1111111111011111111111111111;
 2D2 : 1111111111010111111111110111;
 2D3 : 1111111111110100000000000110;
 2D4 : 1111111111111111111111110110;
 2D5 : 1111111111011100000000000001;
 2D6 : 0000000000010011111111110100;
 2D7 : 1111111111110100000000000010;
 2D8 : 0000000000101000000000010010;
 2D9 : 1111111111111100000000000010;
 2DA : 0000000000001111111111111001;
 2DB : 0000000000111111111111110101;
 2DC : 0000000000011111111111101010;
 2DD : 0000000001000011111111111111;
 2DE : 1111111111110000000000000011;
 2DF : 1111111111001000000000000110;
 2E0 : 0000000000001011111111101101;
 2E1 : 1111111111010011111111111110;
 2E2 : 1111111110111100000000000000;
 2E3 : 0000000000001100000000000110;
 2E4 : 1111111111110000000000000010;
 2E5 : 1111111111110011111111110011;
 2E6 : 1111111110101111111111111010;
 2E7 : 1111111111110011111111111100;
 2E8 : 0000000000011111111111111111;
 2E9 : 1111111111001011111111111101;
 2EA : 1111111111010000000000001010;
 2EB : 0000000000101000000000001011;
 2EC : 1111111111101011111111111100;
 2ED : 1111111111111100000000000001;
 2EE : 0000000000011000000000000001;
 2EF : 0000000000110111111111110101;
 2F0 : 0000000000000000000000000110;
 2F1 : 1111111111100100000000000011;
 2F2 : 1111111111111011111111110110;
 2F3 : 0000000000001011111111111000;
 2F4 : 0000000000010000000000001000;
 2F5 : 1111111111010000000000000010;
 2F6 : 0000000000100000000000010001;
 2F7 : 1111111111111100000000000001;
 2F8 : 1111111111010100000000000011;
 2F9 : 1111111111100000000000010000;
 2FA : 1111111111100011111111111010;
 2FB : 1111111111110100000000010010;
 2FC : 1111111110111011111111111010;
 2FD : 0000000000001011111111111010;
 2FE : 1111111111100011111111111110;
 2FF : 1111111111010100000000001000;
 300 : 1111111111101100000000010001;
 301 : 1111111110111000000000000010;
 302 : 1111111111111000000000001001;
 303 : 0000000000001100000000000111;
 304 : 1111111111010100000000000000;
 305 : 1111111111110100000000001101;
 306 : 0000000000001100000000000100;
 307 : 1111111111111100000000001001;
 308 : 1111111111001011111111111011;
 309 : 0000000000001011111111101000;
 30A : 0000000000101000000000001001;
 30B : 1111111111101111111111111011;
 30C : 0000000000011100000000001010;
 30D : 1111111111011000000000000111;
 30E : 0000000001001011111111111101;
 30F : 1111111111110111111111111110;
 310 : 1111111111111100000000000010;
 311 : 0000000000001000000000001000;
 312 : 1111111111100111111111111100;
 313 : 1111111111110111111111100111;
 314 : 1111111111101100000000000101;
 315 : 0000000000010000000000000000;
 316 : 0000000000000111111111110100;
 317 : 0000000000011011111111111111;
 318 : 1111111111110011111111111111;
 319 : 1111111111011000000000000100;
 31A : 1111111110111011111111111110;
 31B : 1111111111111011111111110100;
 31C : 0000000000100011111111111110;
 31D : 0000000000101000000000000010;
 31E : 1111111111110011111111111010;
 31F : 1111111111110100000000001100;
 320 : 1111111111100000000000001110;
 321 : 0000000000000111111111111010;
 322 : 1111111111101100000000000110;
 323 : 1111111110100100000000001100;
 324 : 1111111111100100000000001001;
 325 : 0000000000000000000000001001;
 326 : 1111111111110100000000000101;
 327 : 1111111111100111111111111101;
 328 : 1111111111111100000000001100;
 329 : 1111111111100011111111111001;
 32A : 0000000000101111111111111001;
 32B : 1111111110010100000000000101;
 32C : 1111111111011100000000000111;
 32D : 0000000000000100000000000001;
 32E : 0000000000001100000000000110;
 32F : 0000000000001000000000000110;
 330 : 0000000000101011111111111001;
 331 : 1111111111011100000000000000;
 332 : 1111111111110000000000000111;
 333 : 0000000000011100000000000001;
 334 : 1111111111111111111111110011;
 335 : 0000000000010000000000001111;
 336 : 0000000000010100000000000011;
 337 : 0000000000100100000000000001;
 338 : 0000000000000100000000001110;
 339 : 1111111111001111111111111100;
 33A : 0000000000111011111111111111;
 33B : 1111111111101000000000000010;
 33C : 0000000000000111111111110100;
 33D : 1111111111110011111111101100;
 33E : 0000000000011011111111110110;
 33F : 0000000000100000000000000001;
 340 : 0000000000010100000000001100;
 341 : 0000000000000000000000000000;
 342 : 0000000000010111111111110011;
 343 : 0000000000000100000000000001;
 344 : 1111111111110011111111110100;
 345 : 1111111111010011111111111011;
 346 : 0000000000101011111111110111;
 347 : 0000000001000000000000000100;
 348 : 1111111111010111111111111111;
 349 : 0000000000001100000000000010;
 34A : 0000000001000111111111111111;
 34B : 0000000001001000000000001010;
 34C : 1111111111111000000000001010;
 34D : 1111111110110111111111111100;
 34E : 0000000000101111111111111011;
 34F : 1111111110110011111111110100;
 350 : 0000000000001011111111111100;
 351 : 1111111111011111111111110100;
 352 : 0000000000110111111111111101;
 353 : 1111111111111111111111111000;
 354 : 0000000000010100000000001100;
 355 : 1111111111101011111111111010;
 356 : 0000000000010011111111111001;
 357 : 1111111111001011111111110011;
 358 : 0000000000111100000000000100;
 359 : 1111111111111100000000010100;
 35A : 0000000000010011111111111001;
 35B : 1111111111011011111111111000;
 35C : 0000000000011100000000000101;
 35D : 1111111111110100000000000111;
 35E : 0000000000010111111111111000;
 35F : 0000000000011011111111110111;
 360 : 0000000000101011111111110011;
 361 : 0000000000000011111111110010;
 362 : 1111111111011100000000000001;
 363 : 0000000000010011111111110111;
 364 : 1111111111111000000000000000;
 365 : 1111111110111011111111110111;
 366 : 1111111111011011111111111100;
 367 : 1111111111100011111111101101;
 368 : 0000000000001111111111111000;
 369 : 1111111111111100000000000011;
 36A : 1111111111100111111111111001;
 36B : 0000000000001111111111110111;
 36C : 0000000000001111111111111010;
 36D : 1111111110111000000000000111;
 36E : 0000000000001000000000001001;
 36F : 0000000000100100000000000111;
 370 : 0000000000110100000000000101;
 371 : 1111111111100011111111110111;
 372 : 1111111111001111111111110011;
 373 : 0000000001011100000000000111;
 374 : 1111111111101000000000000111;
 375 : 1111111111100000000000000000;
 376 : 1111111111111011111111111100;
 377 : 0000000000010000000000001001;
 378 : 0000000000001000000000000100;
 379 : 0000000000001011111111111011;
 37A : 1111111111001100000000000001;
 37B : 1111111111011000000000000101;
 37C : 1111111111100000000000000110;
 37D : 1111111111110011111111111100;
 37E : 0000000000001111111111110010;
 37F : 1111111111100000000000000100;
 380 : 0000000000100011111111111111;
 381 : 0000000000000111111111101111;
 382 : 1111111110111111111111111011;
 383 : 1111111111110011111111111011;
 384 : 1111111111000000000000000001;
 385 : 1111111111010100000000000010;
 386 : 0000000000001000000000000011;
 387 : 0000000000010000000000000001;
 388 : 0000000000001000000000001010;
 389 : 1111111111111000000000001101;
 38A : 0000000000001011111111111010;
 38B : 0000000000011011111111111001;
 38C : 0000000000010100000000000110;
 38D : 0000000001000000000000000111;
 38E : 1111111111100111111111111100;
 38F : 0000000000110111111111111001;
 390 : 1111111111010111111111110100;
 391 : 0000000000001111111111111101;
 392 : 0000000000000011111111110110;
 393 : 1111111110110111111111111010;
 394 : 0000000000101111111111110111;
 395 : 1111111111110000000000001011;
 396 : 1111111111100100000000001000;
 397 : 0000000000011100000000001010;
 398 : 1111111111100111111111111100;
 399 : 1111111111001011111111101010;
 39A : 1111111111011000000000000010;
 39B : 1111111111111011111111110011;
 39C : 0000000000011111111111111111;
 39D : 1111111111111011111111111001;
 39E : 0000000000100011111111111010;
 39F : 1111111111101111111111111101;
 3A0 : 0000000000000011111111111001;
 3A1 : 0000000000101000000000001000;
 3A2 : 1111111111101000000000000000;
 3A3 : 1111111111101100000000000011;
 3A4 : 0000000000000111111111111110;
 3A5 : 0000000000101000000000000000;
 3A6 : 1111111111101111111111110011;
 3A7 : 0000000000100000000000001010;
 3A8 : 1111111111111000000000000010;
 3A9 : 1111111111011011111111110000;
 3AA : 1111111111001111111111110001;
 3AB : 1111111111111011111111111011;
 3AC : 1111111111111111111111111101;
 3AD : 1111111111110011111111111011;
 3AE : 1111111111111000000000000011;
 3AF : 0000000000000111111111110000;
 3B0 : 0000000000001111111111111100;
 3B1 : 1111111111001100000000000001;
 3B2 : 1111111111110000000000000011;
 3B3 : 0000000000010111111111110101;
 3B4 : 0000000000000111111111111011;
 3B5 : 1111111111100000000000000011;
 3B6 : 1111111111000111111111110101;
 3B7 : 1111111111100100000000000100;
 3B8 : 0000000000011111111111111111;
 3B9 : 1111111111110111111111110001;
 3BA : 1111111111111111111111101101;
 3BB : 0000000000100100000000000010;
 3BC : 1111111111010111111111110010;
 3BD : 1111111111101100000000000010;
 3BE : 0000000000111000000000010001;
 3BF : 1111111110110011111111111011;
 3C0 : 1111111111010111111111101100;
 3C1 : 0000000001010100000000000001;
 3C2 : 1111111110100011111111101100;
 3C3 : 1111111110110111111111110110;
 3C4 : 1111111111111011111111110000;
 3C5 : 1111111111000011111111111001;
 3C6 : 0000000000100111111111110110;
 3C7 : 1111111110011011111111110000;
 3C8 : 0000000000101111111111101111;
 3C9 : 0000000000001000000000000000;
 3CA : 1111111111001011111111110100;
 3CB : 1111111110101011111111111100;
 3CC : 1111111111110011111111111001;
 3CD : 1111111111011111111111101111;
 3CE : 1111111110110011111111101000;
 3CF : 0000000000000111111111101001;
 3D0 : 1111111111100011111111101011;
 3D1 : 1111111111001111111111101110;
 3D2 : 1111111101101011111111011000;
 3D3 : 1111111101101011111111100011;
 3D4 : 1111111011100111111110110000;
 3D5 : 1111101100101011111011010111;
 3D6 : 0000001001100100000010010100;
 3D7 : 0000000010111000000000101100;
 3D8 : 0000000010010000000000101101;
 3D9 : 0000000001001100000000011001;
 3DA : 0000000001010100000000001110;
 3DB : 0000000001011000000000100001;
 3DC : 0000000001000000000000000111;
 3DD : 0000000001000000000000000011;
 3DE : 0000000000011000000000011001;
 3DF : 0000000001000100000000010011;
 3E0 : 0000000000110111111111111111;
 3E1 : 0000000000100100000000000100;
 3E2 : 0000000000111000000000001011;
 3E3 : 0000000000110111111111111010;
 3E4 : 0000000000101100000000000110;
 3E5 : 0000000000010000000000000100;
 3E6 : 0000000000110100000000000111;
 3E7 : 1111111111101100000000001100;
 3E8 : 0000000000011011111111111110;
 3E9 : 0000000001001000000000000010;
 3EA : 0000000000111000000000000010;
 3EB : 0000000000111100000000010100;
 3EC : 1111111111100011111111111100;
 3ED : 1111111111100100000000000001;
 3EE : 0000000000110111111111111110;
 3EF : 0000000000111011111111111111;
 3F0 : 0000000000111000000000000010;
 3F1 : 0000000000010100000000000100;
 3F2 : 1111111111111011111111111110;
 3F3 : 0000000000110111111111110101;
 3F4 : 0000000000001011111111110011;
 3F5 : 0000000000010011111111110111;
 3F6 : 1111111111001000000000000100;
 3F7 : 1111111111110111111111111110;
 3F8 : 0000000000011100000000001011;
 3F9 : 0000000000010000000000000001;
 3FA : 0000000000100100000000000111;
 3FB : 0000000000110011111111110111;
 3FC : 0000000000001000000000000000;
 3FD : 0000000000000000000000000100;
 3FE : 0000000000001000000000001010;
 3FF : 0000000000001000000000001001;
END;
